Note: can't find init file.

Circuit: *****Single NMOS Transistor For BSIM3V3.1  general purpose check (Id-Vd) ***

Warning: Pd = 0 is less than W.
Warning: Ps = 0 is less than W.
Circuit: *****Single NMOS Transistor For BSIM3V3.1  general purpose check (Id-Vd) ***
Date: Thu Jul 28 21:10:03  2005


  *****Single NMOS Transistor For BSIM3V3.1  general purpose check (Id-Vd) ***
  DC transfer characteristic  Thu Jul 28 21:10:03  2005
--------------------------------------------------------------------------------
Index   sweep           v(1)            vds#branch      
--------------------------------------------------------------------------------
0	0.000000e+00	0.000000e+00	0.000000e+00	
1	1.000000e-02	0.000000e+00	-5.888477e-08	
2	2.000000e-02	0.000000e+00	-1.088684e-07	
3	3.000000e-02	0.000000e+00	-1.503489e-07	
4	4.000000e-02	0.000000e+00	-1.838698e-07	
5	5.000000e-02	0.000000e+00	-2.101761e-07	
6	6.000000e-02	0.000000e+00	-2.302447e-07	
7	7.000000e-02	0.000000e+00	-2.452435e-07	
8	8.000000e-02	0.000000e+00	-2.563969e-07	
9	9.000000e-02	0.000000e+00	-2.648135e-07	
10	1.000000e-01	0.000000e+00	-2.713688e-07	
11	1.100000e-01	0.000000e+00	-2.766853e-07	
12	1.200000e-01	0.000000e+00	-2.811768e-07	
13	1.300000e-01	0.000000e+00	-2.851092e-07	
14	1.400000e-01	0.000000e+00	-2.886526e-07	
15	1.500000e-01	0.000000e+00	-2.919162e-07	
16	1.600000e-01	0.000000e+00	-2.949720e-07	
17	1.700000e-01	0.000000e+00	-2.978683e-07	
18	1.800000e-01	0.000000e+00	-3.006383e-07	
19	1.900000e-01	0.000000e+00	-3.033057e-07	
20	2.000000e-01	0.000000e+00	-3.058878e-07	
21	2.100000e-01	0.000000e+00	-3.083973e-07	
22	2.200000e-01	0.000000e+00	-3.108441e-07	
23	2.300000e-01	0.000000e+00	-3.132359e-07	
24	2.400000e-01	0.000000e+00	-3.155790e-07	
25	2.500000e-01	0.000000e+00	-3.178784e-07	
26	2.600000e-01	0.000000e+00	-3.201382e-07	
27	2.700000e-01	0.000000e+00	-3.223621e-07	
28	2.800000e-01	0.000000e+00	-3.245530e-07	
29	2.900000e-01	0.000000e+00	-3.267137e-07	
30	3.000000e-01	0.000000e+00	-3.288464e-07	
31	3.100000e-01	0.000000e+00	-3.309532e-07	
32	3.200000e-01	0.000000e+00	-3.330359e-07	
33	3.300000e-01	0.000000e+00	-3.350962e-07	
34	3.400000e-01	0.000000e+00	-3.371357e-07	
35	3.500000e-01	0.000000e+00	-3.391555e-07	
36	3.600000e-01	0.000000e+00	-3.411571e-07	
37	3.700000e-01	0.000000e+00	-3.431415e-07	
38	3.800000e-01	0.000000e+00	-3.451099e-07	
39	3.900000e-01	0.000000e+00	-3.470631e-07	
40	4.000000e-01	0.000000e+00	-3.490021e-07	
41	4.100000e-01	0.000000e+00	-3.509279e-07	
42	4.200000e-01	0.000000e+00	-3.528410e-07	
43	4.300000e-01	0.000000e+00	-3.547424e-07	
44	4.400000e-01	0.000000e+00	-3.566327e-07	
45	4.500000e-01	0.000000e+00	-3.585125e-07	
46	4.600000e-01	0.000000e+00	-3.603825e-07	
47	4.700000e-01	0.000000e+00	-3.622432e-07	
48	4.800000e-01	0.000000e+00	-3.640953e-07	
49	4.900000e-01	0.000000e+00	-3.659392e-07	
50	5.000000e-01	0.000000e+00	-3.677754e-07	
51	5.100000e-01	0.000000e+00	-3.696043e-07	
52	5.200000e-01	0.000000e+00	-3.714265e-07	
53	5.300000e-01	0.000000e+00	-3.732424e-07	
54	5.400000e-01	0.000000e+00	-3.750523e-07	

Index   sweep           v(1)            vds#branch      
--------------------------------------------------------------------------------
55	5.500000e-01	0.000000e+00	-3.768566e-07	
56	5.600000e-01	0.000000e+00	-3.786556e-07	
57	5.700000e-01	0.000000e+00	-3.804498e-07	
58	5.800000e-01	0.000000e+00	-3.822395e-07	
59	5.900000e-01	0.000000e+00	-3.840249e-07	
60	6.000000e-01	0.000000e+00	-3.858064e-07	
61	6.100000e-01	0.000000e+00	-3.875842e-07	
62	6.200000e-01	0.000000e+00	-3.893587e-07	
63	6.300000e-01	0.000000e+00	-3.911300e-07	
64	6.400000e-01	0.000000e+00	-3.928985e-07	
65	6.500000e-01	0.000000e+00	-3.946643e-07	
66	6.600000e-01	0.000000e+00	-3.964278e-07	
67	6.700000e-01	0.000000e+00	-3.981891e-07	
68	6.800000e-01	0.000000e+00	-3.999484e-07	
69	6.900000e-01	0.000000e+00	-4.017060e-07	
70	7.000000e-01	0.000000e+00	-4.034620e-07	
71	7.100000e-01	0.000000e+00	-4.052167e-07	
72	7.200000e-01	0.000000e+00	-4.069701e-07	
73	7.300000e-01	0.000000e+00	-4.087226e-07	
74	7.400000e-01	0.000000e+00	-4.104742e-07	
75	7.500000e-01	0.000000e+00	-4.122251e-07	
76	7.600000e-01	0.000000e+00	-4.139755e-07	
77	7.700000e-01	0.000000e+00	-4.157256e-07	
78	7.800000e-01	0.000000e+00	-4.174754e-07	
79	7.900000e-01	0.000000e+00	-4.192251e-07	
80	8.000000e-01	0.000000e+00	-4.209749e-07	
81	8.100000e-01	0.000000e+00	-4.227248e-07	
82	8.200000e-01	0.000000e+00	-4.244751e-07	
83	8.300000e-01	0.000000e+00	-4.262258e-07	
84	8.400000e-01	0.000000e+00	-4.279770e-07	
85	8.500000e-01	0.000000e+00	-4.297289e-07	
86	8.600000e-01	0.000000e+00	-4.314816e-07	
87	8.700000e-01	0.000000e+00	-4.332352e-07	
88	8.800000e-01	0.000000e+00	-4.349898e-07	
89	8.900000e-01	0.000000e+00	-4.367455e-07	
90	9.000000e-01	0.000000e+00	-4.385023e-07	
91	9.100000e-01	0.000000e+00	-4.402605e-07	
92	9.200000e-01	0.000000e+00	-4.420200e-07	
93	9.300000e-01	0.000000e+00	-4.437810e-07	
94	9.400000e-01	0.000000e+00	-4.455436e-07	
95	9.500000e-01	0.000000e+00	-4.473078e-07	
96	9.600000e-01	0.000000e+00	-4.490738e-07	
97	9.700000e-01	0.000000e+00	-4.508416e-07	
98	9.800000e-01	0.000000e+00	-4.526112e-07	
99	9.900000e-01	0.000000e+00	-4.543829e-07	
100	1.000000e+00	0.000000e+00	-4.561566e-07	
101	1.010000e+00	0.000000e+00	-4.579324e-07	
102	1.020000e+00	0.000000e+00	-4.597103e-07	
103	1.030000e+00	0.000000e+00	-4.614906e-07	
104	1.040000e+00	0.000000e+00	-4.632732e-07	
105	1.050000e+00	0.000000e+00	-4.650581e-07	
106	1.060000e+00	0.000000e+00	-4.668455e-07	
107	1.070000e+00	0.000000e+00	-4.686355e-07	
108	1.080000e+00	0.000000e+00	-4.704280e-07	
109	1.090000e+00	0.000000e+00	-4.722232e-07	
110	1.100000e+00	0.000000e+00	-4.740210e-07	
111	1.110000e+00	0.000000e+00	-4.758216e-07	
112	1.120000e+00	0.000000e+00	-4.776251e-07	

Index   sweep           v(1)            vds#branch      
--------------------------------------------------------------------------------
113	1.130000e+00	0.000000e+00	-4.794314e-07	
114	1.140000e+00	0.000000e+00	-4.812406e-07	
115	1.150000e+00	0.000000e+00	-4.830528e-07	
116	1.160000e+00	0.000000e+00	-4.848681e-07	
117	1.170000e+00	0.000000e+00	-4.866864e-07	
118	1.180000e+00	0.000000e+00	-4.885078e-07	
119	1.190000e+00	0.000000e+00	-4.903324e-07	
120	1.200000e+00	0.000000e+00	-4.921603e-07	
121	1.210000e+00	0.000000e+00	-4.939914e-07	
122	1.220000e+00	0.000000e+00	-4.958258e-07	
123	1.230000e+00	0.000000e+00	-4.976636e-07	
124	1.240000e+00	0.000000e+00	-4.995048e-07	
125	1.250000e+00	0.000000e+00	-5.013495e-07	
126	1.260000e+00	0.000000e+00	-5.031977e-07	
127	1.270000e+00	0.000000e+00	-5.050494e-07	
128	1.280000e+00	0.000000e+00	-5.069046e-07	
129	1.290000e+00	0.000000e+00	-5.087635e-07	
130	1.300000e+00	0.000000e+00	-5.106261e-07	
131	1.310000e+00	0.000000e+00	-5.124923e-07	
132	1.320000e+00	0.000000e+00	-5.143623e-07	
133	1.330000e+00	0.000000e+00	-5.162361e-07	
134	1.340000e+00	0.000000e+00	-5.181137e-07	
135	1.350000e+00	0.000000e+00	-5.199951e-07	
136	1.360000e+00	0.000000e+00	-5.218804e-07	
137	1.370000e+00	0.000000e+00	-5.237696e-07	
138	1.380000e+00	0.000000e+00	-5.256628e-07	
139	1.390000e+00	0.000000e+00	-5.275600e-07	
140	1.400000e+00	0.000000e+00	-5.294612e-07	
141	1.410000e+00	0.000000e+00	-5.313665e-07	
142	1.420000e+00	0.000000e+00	-5.332759e-07	
143	1.430000e+00	0.000000e+00	-5.351894e-07	
144	1.440000e+00	0.000000e+00	-5.371071e-07	
145	1.450000e+00	0.000000e+00	-5.390289e-07	
146	1.460000e+00	0.000000e+00	-5.409550e-07	
147	1.470000e+00	0.000000e+00	-5.428853e-07	
148	1.480000e+00	0.000000e+00	-5.448200e-07	
149	1.490000e+00	0.000000e+00	-5.467589e-07	
150	1.500000e+00	0.000000e+00	-5.487022e-07	
151	1.510000e+00	0.000000e+00	-5.506499e-07	
152	1.520000e+00	0.000000e+00	-5.526020e-07	
153	1.530000e+00	0.000000e+00	-5.545585e-07	
154	1.540000e+00	0.000000e+00	-5.565195e-07	
155	1.550000e+00	0.000000e+00	-5.584850e-07	
156	1.560000e+00	0.000000e+00	-5.604550e-07	
157	1.570000e+00	0.000000e+00	-5.624296e-07	
158	1.580000e+00	0.000000e+00	-5.644088e-07	
159	1.590000e+00	0.000000e+00	-5.663925e-07	
160	1.600000e+00	0.000000e+00	-5.683810e-07	
161	1.610000e+00	0.000000e+00	-5.703740e-07	
162	1.620000e+00	0.000000e+00	-5.723718e-07	
163	1.630000e+00	0.000000e+00	-5.743743e-07	
164	1.640000e+00	0.000000e+00	-5.763815e-07	
165	1.650000e+00	0.000000e+00	-5.783935e-07	
166	1.660000e+00	0.000000e+00	-5.804103e-07	
167	1.670000e+00	0.000000e+00	-5.824319e-07	
168	1.680000e+00	0.000000e+00	-5.844584e-07	
169	1.690000e+00	0.000000e+00	-5.864897e-07	
170	1.700000e+00	0.000000e+00	-5.885260e-07	

Index   sweep           v(1)            vds#branch      
--------------------------------------------------------------------------------
171	1.710000e+00	0.000000e+00	-5.905672e-07	
172	1.720000e+00	0.000000e+00	-5.926133e-07	
173	1.730000e+00	0.000000e+00	-5.946644e-07	
174	1.740000e+00	0.000000e+00	-5.967205e-07	
175	1.750000e+00	0.000000e+00	-5.987816e-07	
176	1.760000e+00	0.000000e+00	-6.008478e-07	
177	1.770000e+00	0.000000e+00	-6.029190e-07	
178	1.780000e+00	0.000000e+00	-6.049954e-07	
179	1.790000e+00	0.000000e+00	-6.070769e-07	
180	1.800000e+00	0.000000e+00	-6.091635e-07	
181	1.810000e+00	0.000000e+00	-6.112552e-07	
182	1.820000e+00	0.000000e+00	-6.133522e-07	
183	1.830000e+00	0.000000e+00	-6.154544e-07	
184	1.840000e+00	0.000000e+00	-6.175618e-07	
185	1.850000e+00	0.000000e+00	-6.196745e-07	
186	1.860000e+00	0.000000e+00	-6.217925e-07	
187	1.870000e+00	0.000000e+00	-6.239158e-07	
188	1.880000e+00	0.000000e+00	-6.260444e-07	
189	1.890000e+00	0.000000e+00	-6.281784e-07	
190	1.900000e+00	0.000000e+00	-6.303177e-07	
191	1.910000e+00	0.000000e+00	-6.324624e-07	
192	1.920000e+00	0.000000e+00	-6.346126e-07	
193	1.930000e+00	0.000000e+00	-6.367682e-07	
194	1.940000e+00	0.000000e+00	-6.389293e-07	
195	1.950000e+00	0.000000e+00	-6.410958e-07	
196	1.960000e+00	0.000000e+00	-6.432679e-07	
197	1.970000e+00	0.000000e+00	-6.454455e-07	
198	1.980000e+00	0.000000e+00	-6.476286e-07	
199	1.990000e+00	0.000000e+00	-6.498173e-07	
200	2.000000e+00	0.000000e+00	-6.520117e-07	
201	2.010000e+00	0.000000e+00	-6.542116e-07	
202	2.020000e+00	0.000000e+00	-6.564172e-07	
203	2.030000e+00	0.000000e+00	-6.586284e-07	
204	2.040000e+00	0.000000e+00	-6.608453e-07	
205	2.050000e+00	0.000000e+00	-6.630679e-07	
206	2.060000e+00	0.000000e+00	-6.652963e-07	
207	2.070000e+00	0.000000e+00	-6.675304e-07	
208	2.080000e+00	0.000000e+00	-6.697702e-07	
209	2.090000e+00	0.000000e+00	-6.720159e-07	
210	2.100000e+00	0.000000e+00	-6.742674e-07	
211	2.110000e+00	0.000000e+00	-6.765246e-07	
212	2.120000e+00	0.000000e+00	-6.787878e-07	
213	2.130000e+00	0.000000e+00	-6.810568e-07	
214	2.140000e+00	0.000000e+00	-6.833317e-07	
215	2.150000e+00	0.000000e+00	-6.856125e-07	
216	2.160000e+00	0.000000e+00	-6.878993e-07	
217	2.170000e+00	0.000000e+00	-6.901920e-07	
218	2.180000e+00	0.000000e+00	-6.924907e-07	
219	2.190000e+00	0.000000e+00	-6.947954e-07	
220	2.200000e+00	0.000000e+00	-6.971061e-07	
221	2.210000e+00	0.000000e+00	-6.994229e-07	
222	2.220000e+00	0.000000e+00	-7.017457e-07	
223	2.230000e+00	0.000000e+00	-7.040746e-07	
224	2.240000e+00	0.000000e+00	-7.064095e-07	
225	2.250000e+00	0.000000e+00	-7.087507e-07	
226	2.260000e+00	0.000000e+00	-7.110979e-07	
227	2.270000e+00	0.000000e+00	-7.134513e-07	
228	2.280000e+00	0.000000e+00	-7.158109e-07	

Index   sweep           v(1)            vds#branch      
--------------------------------------------------------------------------------
229	2.290000e+00	0.000000e+00	-7.181767e-07	
230	2.300000e+00	0.000000e+00	-7.205487e-07	
231	2.310000e+00	0.000000e+00	-7.229270e-07	
232	2.320000e+00	0.000000e+00	-7.253115e-07	
233	2.330000e+00	0.000000e+00	-7.277024e-07	
234	2.340000e+00	0.000000e+00	-7.300995e-07	
235	2.350000e+00	0.000000e+00	-7.325029e-07	
236	2.360000e+00	0.000000e+00	-7.349127e-07	
237	2.370000e+00	0.000000e+00	-7.373289e-07	
238	2.380000e+00	0.000000e+00	-7.397514e-07	
239	2.390000e+00	0.000000e+00	-7.421804e-07	
240	2.400000e+00	0.000000e+00	-7.446158e-07	
241	2.410000e+00	0.000000e+00	-7.470576e-07	
242	2.420000e+00	0.000000e+00	-7.495059e-07	
243	2.430000e+00	0.000000e+00	-7.519607e-07	
244	2.440000e+00	0.000000e+00	-7.544220e-07	
245	2.450000e+00	0.000000e+00	-7.568898e-07	
246	2.460000e+00	0.000000e+00	-7.593642e-07	
247	2.470000e+00	0.000000e+00	-7.618451e-07	
248	2.480000e+00	0.000000e+00	-7.643326e-07	
249	2.490000e+00	0.000000e+00	-7.668267e-07	
250	2.500000e+00	0.000000e+00	-7.693275e-07	
251	2.510000e+00	0.000000e+00	-7.718349e-07	
252	2.520000e+00	0.000000e+00	-7.743490e-07	
253	2.530000e+00	0.000000e+00	-7.768698e-07	
254	2.540000e+00	0.000000e+00	-7.793973e-07	
255	2.550000e+00	0.000000e+00	-7.819315e-07	
256	2.560000e+00	0.000000e+00	-7.844724e-07	
257	2.570000e+00	0.000000e+00	-7.870202e-07	
258	2.580000e+00	0.000000e+00	-7.895747e-07	
259	2.590000e+00	0.000000e+00	-7.921360e-07	
260	2.600000e+00	0.000000e+00	-7.947042e-07	
261	2.610000e+00	0.000000e+00	-7.972792e-07	
262	2.620000e+00	0.000000e+00	-7.998611e-07	
263	2.630000e+00	0.000000e+00	-8.024499e-07	
264	2.640000e+00	0.000000e+00	-8.050456e-07	
265	2.650000e+00	0.000000e+00	-8.076482e-07	
266	2.660000e+00	0.000000e+00	-8.102578e-07	
267	2.670000e+00	0.000000e+00	-8.128744e-07	
268	2.680000e+00	0.000000e+00	-8.154979e-07	
269	2.690000e+00	0.000000e+00	-8.181285e-07	
270	2.700000e+00	0.000000e+00	-8.207661e-07	
271	2.710000e+00	0.000000e+00	-8.234108e-07	
272	2.720000e+00	0.000000e+00	-8.260625e-07	
273	2.730000e+00	0.000000e+00	-8.287213e-07	
274	2.740000e+00	0.000000e+00	-8.313873e-07	
275	2.750000e+00	0.000000e+00	-8.340603e-07	
276	2.760000e+00	0.000000e+00	-8.367406e-07	
277	2.770000e+00	0.000000e+00	-8.394280e-07	
278	2.780000e+00	0.000000e+00	-8.421226e-07	
279	2.790000e+00	0.000000e+00	-8.448245e-07	
280	2.800000e+00	0.000000e+00	-8.475335e-07	
281	2.810000e+00	0.000000e+00	-8.502499e-07	
282	2.820000e+00	0.000000e+00	-8.529735e-07	
283	2.830000e+00	0.000000e+00	-8.557044e-07	
284	2.840000e+00	0.000000e+00	-8.584426e-07	
285	2.850000e+00	0.000000e+00	-8.611882e-07	
286	2.860000e+00	0.000000e+00	-8.639412e-07	

Index   sweep           v(1)            vds#branch      
--------------------------------------------------------------------------------
287	2.870000e+00	0.000000e+00	-8.667015e-07	
288	2.880000e+00	0.000000e+00	-8.694692e-07	
289	2.890000e+00	0.000000e+00	-8.722444e-07	
290	2.900000e+00	0.000000e+00	-8.750270e-07	
291	2.910000e+00	0.000000e+00	-8.778170e-07	
292	2.920000e+00	0.000000e+00	-8.806146e-07	
293	2.930000e+00	0.000000e+00	-8.834197e-07	
294	2.940000e+00	0.000000e+00	-8.862323e-07	
295	2.950000e+00	0.000000e+00	-8.890524e-07	
296	2.960000e+00	0.000000e+00	-8.918801e-07	
297	2.970000e+00	0.000000e+00	-8.947154e-07	
298	2.980000e+00	0.000000e+00	-8.975583e-07	
299	2.990000e+00	0.000000e+00	-9.004089e-07	
300	3.000000e+00	0.000000e+00	-9.032671e-07	
301	3.010000e+00	0.000000e+00	-9.061330e-07	
302	3.020000e+00	0.000000e+00	-9.090066e-07	
303	3.030000e+00	0.000000e+00	-9.118879e-07	
304	3.040000e+00	0.000000e+00	-9.147769e-07	
305	3.050000e+00	0.000000e+00	-9.176737e-07	
306	3.060000e+00	0.000000e+00	-9.205783e-07	
307	3.070000e+00	0.000000e+00	-9.234906e-07	
308	3.080000e+00	0.000000e+00	-9.264108e-07	
309	3.090000e+00	0.000000e+00	-9.293389e-07	
310	3.100000e+00	0.000000e+00	-9.322748e-07	
311	3.110000e+00	0.000000e+00	-9.352186e-07	
312	3.120000e+00	0.000000e+00	-9.381703e-07	
313	3.130000e+00	0.000000e+00	-9.411299e-07	
314	3.140000e+00	0.000000e+00	-9.440975e-07	
315	3.150000e+00	0.000000e+00	-9.470731e-07	
316	3.160000e+00	0.000000e+00	-9.500566e-07	
317	3.170000e+00	0.000000e+00	-9.530482e-07	
318	3.180000e+00	0.000000e+00	-9.560478e-07	
319	3.190000e+00	0.000000e+00	-9.590555e-07	
320	3.200000e+00	0.000000e+00	-9.620712e-07	
321	3.210000e+00	0.000000e+00	-9.650951e-07	
322	3.220000e+00	0.000000e+00	-9.681271e-07	
323	3.230000e+00	0.000000e+00	-9.711672e-07	
324	3.240000e+00	0.000000e+00	-9.742155e-07	
325	3.250000e+00	0.000000e+00	-9.772719e-07	
326	3.260000e+00	0.000000e+00	-9.803366e-07	
327	3.270000e+00	0.000000e+00	-9.834095e-07	
328	3.280000e+00	0.000000e+00	-9.864907e-07	
329	3.290000e+00	0.000000e+00	-9.895802e-07	
330	3.300000e+00	0.000000e+00	-9.926779e-07	
331	3.310000e+00	0.000000e+00	-9.957840e-07	
332	3.320000e+00	0.000000e+00	-9.988984e-07	
333	3.330000e+00	0.000000e+00	-1.002021e-06	
334	3.340000e+00	0.000000e+00	-1.005152e-06	
335	3.350000e+00	0.000000e+00	-1.008292e-06	
336	3.360000e+00	0.000000e+00	-1.011440e-06	
337	3.370000e+00	0.000000e+00	-1.014596e-06	
338	3.380000e+00	0.000000e+00	-1.017761e-06	
339	3.390000e+00	0.000000e+00	-1.020935e-06	
340	3.400000e+00	0.000000e+00	-1.024117e-06	
341	3.410000e+00	0.000000e+00	-1.027307e-06	
342	3.420000e+00	0.000000e+00	-1.030506e-06	
343	3.430000e+00	0.000000e+00	-1.033714e-06	
344	3.440000e+00	0.000000e+00	-1.036930e-06	

Index   sweep           v(1)            vds#branch      
--------------------------------------------------------------------------------
345	3.450000e+00	0.000000e+00	-1.040155e-06	
346	3.460000e+00	0.000000e+00	-1.043388e-06	
347	3.470000e+00	0.000000e+00	-1.046631e-06	
348	3.480000e+00	0.000000e+00	-1.049882e-06	
349	3.490000e+00	0.000000e+00	-1.053141e-06	
350	3.500000e+00	0.000000e+00	-1.056410e-06	
351	0.000000e+00	5.000000e-01	0.000000e+00	
352	1.000000e-02	5.000000e-01	-5.114066e-06	
353	2.000000e-02	5.000000e-01	-9.979150e-06	
354	3.000000e-02	5.000000e-01	-1.459809e-05	
355	4.000000e-02	5.000000e-01	-1.897374e-05	
356	5.000000e-02	5.000000e-01	-2.310903e-05	
357	6.000000e-02	5.000000e-01	-2.700695e-05	
358	7.000000e-02	5.000000e-01	-3.067059e-05	
359	8.000000e-02	5.000000e-01	-3.410320e-05	
360	9.000000e-02	5.000000e-01	-3.730825e-05	
361	1.000000e-01	5.000000e-01	-4.028948e-05	
362	1.100000e-01	5.000000e-01	-4.305102e-05	
363	1.200000e-01	5.000000e-01	-4.559754e-05	
364	1.300000e-01	5.000000e-01	-4.793436e-05	
365	1.400000e-01	5.000000e-01	-5.006771e-05	
366	1.500000e-01	5.000000e-01	-5.200495e-05	
367	1.600000e-01	5.000000e-01	-5.375482e-05	
368	1.700000e-01	5.000000e-01	-5.532767e-05	
369	1.800000e-01	5.000000e-01	-5.673564e-05	
370	1.900000e-01	5.000000e-01	-5.799261e-05	
371	2.000000e-01	5.000000e-01	-5.911390e-05	
372	2.100000e-01	5.000000e-01	-6.011583e-05	
373	2.200000e-01	5.000000e-01	-6.101485e-05	
374	2.300000e-01	5.000000e-01	-6.182681e-05	
375	2.400000e-01	5.000000e-01	-6.256625e-05	
376	2.500000e-01	5.000000e-01	-6.324586e-05	
377	2.600000e-01	5.000000e-01	-6.387639e-05	
378	2.700000e-01	5.000000e-01	-6.446660e-05	
379	2.800000e-01	5.000000e-01	-6.502356e-05	
380	2.900000e-01	5.000000e-01	-6.555282e-05	
381	3.000000e-01	5.000000e-01	-6.605877e-05	
382	3.100000e-01	5.000000e-01	-6.654483e-05	
383	3.200000e-01	5.000000e-01	-6.701371e-05	
384	3.300000e-01	5.000000e-01	-6.746756e-05	
385	3.400000e-01	5.000000e-01	-6.790810e-05	
386	3.500000e-01	5.000000e-01	-6.833671e-05	
387	3.600000e-01	5.000000e-01	-6.875456e-05	
388	3.700000e-01	5.000000e-01	-6.916257e-05	
389	3.800000e-01	5.000000e-01	-6.956156e-05	
390	3.900000e-01	5.000000e-01	-6.995221e-05	
391	4.000000e-01	5.000000e-01	-7.033510e-05	
392	4.100000e-01	5.000000e-01	-7.071075e-05	
393	4.200000e-01	5.000000e-01	-7.107961e-05	
394	4.300000e-01	5.000000e-01	-7.144208e-05	
395	4.400000e-01	5.000000e-01	-7.179852e-05	
396	4.500000e-01	5.000000e-01	-7.214927e-05	
397	4.600000e-01	5.000000e-01	-7.249461e-05	
398	4.700000e-01	5.000000e-01	-7.283482e-05	
399	4.800000e-01	5.000000e-01	-7.317015e-05	
400	4.900000e-01	5.000000e-01	-7.350083e-05	
401	5.000000e-01	5.000000e-01	-7.382708e-05	
402	5.100000e-01	5.000000e-01	-7.414909e-05	

Index   sweep           v(1)            vds#branch      
--------------------------------------------------------------------------------
403	5.200000e-01	5.000000e-01	-7.446706e-05	
404	5.300000e-01	5.000000e-01	-7.478114e-05	
405	5.400000e-01	5.000000e-01	-7.509152e-05	
406	5.500000e-01	5.000000e-01	-7.539834e-05	
407	5.600000e-01	5.000000e-01	-7.570175e-05	
408	5.700000e-01	5.000000e-01	-7.600189e-05	
409	5.800000e-01	5.000000e-01	-7.629888e-05	
410	5.900000e-01	5.000000e-01	-7.659285e-05	
411	6.000000e-01	5.000000e-01	-7.688392e-05	
412	6.100000e-01	5.000000e-01	-7.717219e-05	
413	6.200000e-01	5.000000e-01	-7.745778e-05	
414	6.300000e-01	5.000000e-01	-7.774077e-05	
415	6.400000e-01	5.000000e-01	-7.802128e-05	
416	6.500000e-01	5.000000e-01	-7.829938e-05	
417	6.600000e-01	5.000000e-01	-7.857517e-05	
418	6.700000e-01	5.000000e-01	-7.884872e-05	
419	6.800000e-01	5.000000e-01	-7.912013e-05	
420	6.900000e-01	5.000000e-01	-7.938945e-05	
421	7.000000e-01	5.000000e-01	-7.965677e-05	
422	7.100000e-01	5.000000e-01	-7.992215e-05	
423	7.200000e-01	5.000000e-01	-8.018567e-05	
424	7.300000e-01	5.000000e-01	-8.044738e-05	
425	7.400000e-01	5.000000e-01	-8.070734e-05	
426	7.500000e-01	5.000000e-01	-8.096562e-05	
427	7.600000e-01	5.000000e-01	-8.122227e-05	
428	7.700000e-01	5.000000e-01	-8.147734e-05	
429	7.800000e-01	5.000000e-01	-8.173089e-05	
430	7.900000e-01	5.000000e-01	-8.198297e-05	
431	8.000000e-01	5.000000e-01	-8.223362e-05	
432	8.100000e-01	5.000000e-01	-8.248288e-05	
433	8.200000e-01	5.000000e-01	-8.273082e-05	
434	8.300000e-01	5.000000e-01	-8.297746e-05	
435	8.400000e-01	5.000000e-01	-8.322285e-05	
436	8.500000e-01	5.000000e-01	-8.346703e-05	
437	8.600000e-01	5.000000e-01	-8.371003e-05	
438	8.700000e-01	5.000000e-01	-8.395190e-05	
439	8.800000e-01	5.000000e-01	-8.419267e-05	
440	8.900000e-01	5.000000e-01	-8.443237e-05	
441	9.000000e-01	5.000000e-01	-8.467103e-05	
442	9.100000e-01	5.000000e-01	-8.490870e-05	
443	9.200000e-01	5.000000e-01	-8.514539e-05	
444	9.300000e-01	5.000000e-01	-8.538115e-05	
445	9.400000e-01	5.000000e-01	-8.561599e-05	
446	9.500000e-01	5.000000e-01	-8.584995e-05	
447	9.600000e-01	5.000000e-01	-8.608305e-05	
448	9.700000e-01	5.000000e-01	-8.631533e-05	
449	9.800000e-01	5.000000e-01	-8.654679e-05	
450	9.900000e-01	5.000000e-01	-8.677748e-05	
451	1.000000e+00	5.000000e-01	-8.700741e-05	
452	1.010000e+00	5.000000e-01	-8.723660e-05	
453	1.020000e+00	5.000000e-01	-8.746509e-05	
454	1.030000e+00	5.000000e-01	-8.769288e-05	
455	1.040000e+00	5.000000e-01	-8.792001e-05	
456	1.050000e+00	5.000000e-01	-8.814648e-05	
457	1.060000e+00	5.000000e-01	-8.837233e-05	
458	1.070000e+00	5.000000e-01	-8.859757e-05	
459	1.080000e+00	5.000000e-01	-8.882221e-05	
460	1.090000e+00	5.000000e-01	-8.904628e-05	

Index   sweep           v(1)            vds#branch      
--------------------------------------------------------------------------------
461	1.100000e+00	5.000000e-01	-8.926979e-05	
462	1.110000e+00	5.000000e-01	-8.949277e-05	
463	1.120000e+00	5.000000e-01	-8.971522e-05	
464	1.130000e+00	5.000000e-01	-8.993717e-05	
465	1.140000e+00	5.000000e-01	-9.015862e-05	
466	1.150000e+00	5.000000e-01	-9.037960e-05	
467	1.160000e+00	5.000000e-01	-9.060011e-05	
468	1.170000e+00	5.000000e-01	-9.082018e-05	
469	1.180000e+00	5.000000e-01	-9.103981e-05	
470	1.190000e+00	5.000000e-01	-9.125902e-05	
471	1.200000e+00	5.000000e-01	-9.147783e-05	
472	1.210000e+00	5.000000e-01	-9.169624e-05	
473	1.220000e+00	5.000000e-01	-9.191427e-05	
474	1.230000e+00	5.000000e-01	-9.213193e-05	
475	1.240000e+00	5.000000e-01	-9.234923e-05	
476	1.250000e+00	5.000000e-01	-9.256618e-05	
477	1.260000e+00	5.000000e-01	-9.278280e-05	
478	1.270000e+00	5.000000e-01	-9.299910e-05	
479	1.280000e+00	5.000000e-01	-9.321508e-05	
480	1.290000e+00	5.000000e-01	-9.343075e-05	
481	1.300000e+00	5.000000e-01	-9.364613e-05	
482	1.310000e+00	5.000000e-01	-9.386123e-05	
483	1.320000e+00	5.000000e-01	-9.407605e-05	
484	1.330000e+00	5.000000e-01	-9.429061e-05	
485	1.340000e+00	5.000000e-01	-9.450491e-05	
486	1.350000e+00	5.000000e-01	-9.471896e-05	
487	1.360000e+00	5.000000e-01	-9.493278e-05	
488	1.370000e+00	5.000000e-01	-9.514636e-05	
489	1.380000e+00	5.000000e-01	-9.535973e-05	
490	1.390000e+00	5.000000e-01	-9.557287e-05	
491	1.400000e+00	5.000000e-01	-9.578582e-05	
492	1.410000e+00	5.000000e-01	-9.599856e-05	
493	1.420000e+00	5.000000e-01	-9.621111e-05	
494	1.430000e+00	5.000000e-01	-9.642348e-05	
495	1.440000e+00	5.000000e-01	-9.663567e-05	
496	1.450000e+00	5.000000e-01	-9.684770e-05	
497	1.460000e+00	5.000000e-01	-9.705955e-05	
498	1.470000e+00	5.000000e-01	-9.727126e-05	
499	1.480000e+00	5.000000e-01	-9.748281e-05	
500	1.490000e+00	5.000000e-01	-9.769422e-05	
501	1.500000e+00	5.000000e-01	-9.790549e-05	
502	1.510000e+00	5.000000e-01	-9.811663e-05	
503	1.520000e+00	5.000000e-01	-9.832765e-05	
504	1.530000e+00	5.000000e-01	-9.853854e-05	
505	1.540000e+00	5.000000e-01	-9.874933e-05	
506	1.550000e+00	5.000000e-01	-9.896000e-05	
507	1.560000e+00	5.000000e-01	-9.917057e-05	
508	1.570000e+00	5.000000e-01	-9.938105e-05	
509	1.580000e+00	5.000000e-01	-9.959143e-05	
510	1.590000e+00	5.000000e-01	-9.980172e-05	
511	1.600000e+00	5.000000e-01	-1.000119e-04	
512	1.610000e+00	5.000000e-01	-1.002221e-04	
513	1.620000e+00	5.000000e-01	-1.004321e-04	
514	1.630000e+00	5.000000e-01	-1.006421e-04	
515	1.640000e+00	5.000000e-01	-1.008521e-04	
516	1.650000e+00	5.000000e-01	-1.010619e-04	
517	1.660000e+00	5.000000e-01	-1.012717e-04	
518	1.670000e+00	5.000000e-01	-1.014815e-04	

Index   sweep           v(1)            vds#branch      
--------------------------------------------------------------------------------
519	1.680000e+00	5.000000e-01	-1.016912e-04	
520	1.690000e+00	5.000000e-01	-1.019009e-04	
521	1.700000e+00	5.000000e-01	-1.021106e-04	
522	1.710000e+00	5.000000e-01	-1.023202e-04	
523	1.720000e+00	5.000000e-01	-1.025297e-04	
524	1.730000e+00	5.000000e-01	-1.027393e-04	
525	1.740000e+00	5.000000e-01	-1.029488e-04	
526	1.750000e+00	5.000000e-01	-1.031583e-04	
527	1.760000e+00	5.000000e-01	-1.033678e-04	
528	1.770000e+00	5.000000e-01	-1.035773e-04	
529	1.780000e+00	5.000000e-01	-1.037868e-04	
530	1.790000e+00	5.000000e-01	-1.039963e-04	
531	1.800000e+00	5.000000e-01	-1.042057e-04	
532	1.810000e+00	5.000000e-01	-1.044152e-04	
533	1.820000e+00	5.000000e-01	-1.046247e-04	
534	1.830000e+00	5.000000e-01	-1.048342e-04	
535	1.840000e+00	5.000000e-01	-1.050437e-04	
536	1.850000e+00	5.000000e-01	-1.052532e-04	
537	1.860000e+00	5.000000e-01	-1.054627e-04	
538	1.870000e+00	5.000000e-01	-1.056723e-04	
539	1.880000e+00	5.000000e-01	-1.058819e-04	
540	1.890000e+00	5.000000e-01	-1.060915e-04	
541	1.900000e+00	5.000000e-01	-1.063011e-04	
542	1.910000e+00	5.000000e-01	-1.065107e-04	
543	1.920000e+00	5.000000e-01	-1.067204e-04	
544	1.930000e+00	5.000000e-01	-1.069302e-04	
545	1.940000e+00	5.000000e-01	-1.071399e-04	
546	1.950000e+00	5.000000e-01	-1.073498e-04	
547	1.960000e+00	5.000000e-01	-1.075596e-04	
548	1.970000e+00	5.000000e-01	-1.077695e-04	
549	1.980000e+00	5.000000e-01	-1.079795e-04	
550	1.990000e+00	5.000000e-01	-1.081895e-04	
551	2.000000e+00	5.000000e-01	-1.083996e-04	
552	2.010000e+00	5.000000e-01	-1.086097e-04	
553	2.020000e+00	5.000000e-01	-1.088198e-04	
554	2.030000e+00	5.000000e-01	-1.090301e-04	
555	2.040000e+00	5.000000e-01	-1.092404e-04	
556	2.050000e+00	5.000000e-01	-1.094507e-04	
557	2.060000e+00	5.000000e-01	-1.096612e-04	
558	2.070000e+00	5.000000e-01	-1.098717e-04	
559	2.080000e+00	5.000000e-01	-1.100823e-04	
560	2.090000e+00	5.000000e-01	-1.102929e-04	
561	2.100000e+00	5.000000e-01	-1.105036e-04	
562	2.110000e+00	5.000000e-01	-1.107144e-04	
563	2.120000e+00	5.000000e-01	-1.109253e-04	
564	2.130000e+00	5.000000e-01	-1.111363e-04	
565	2.140000e+00	5.000000e-01	-1.113473e-04	
566	2.150000e+00	5.000000e-01	-1.115584e-04	
567	2.160000e+00	5.000000e-01	-1.117696e-04	
568	2.170000e+00	5.000000e-01	-1.119809e-04	
569	2.180000e+00	5.000000e-01	-1.121923e-04	
570	2.190000e+00	5.000000e-01	-1.124038e-04	
571	2.200000e+00	5.000000e-01	-1.126154e-04	
572	2.210000e+00	5.000000e-01	-1.128271e-04	
573	2.220000e+00	5.000000e-01	-1.130388e-04	
574	2.230000e+00	5.000000e-01	-1.132507e-04	
575	2.240000e+00	5.000000e-01	-1.134627e-04	
576	2.250000e+00	5.000000e-01	-1.136747e-04	

Index   sweep           v(1)            vds#branch      
--------------------------------------------------------------------------------
577	2.260000e+00	5.000000e-01	-1.138869e-04	
578	2.270000e+00	5.000000e-01	-1.140992e-04	
579	2.280000e+00	5.000000e-01	-1.143116e-04	
580	2.290000e+00	5.000000e-01	-1.145240e-04	
581	2.300000e+00	5.000000e-01	-1.147366e-04	
582	2.310000e+00	5.000000e-01	-1.149493e-04	
583	2.320000e+00	5.000000e-01	-1.151622e-04	
584	2.330000e+00	5.000000e-01	-1.153751e-04	
585	2.340000e+00	5.000000e-01	-1.155881e-04	
586	2.350000e+00	5.000000e-01	-1.158013e-04	
587	2.360000e+00	5.000000e-01	-1.160146e-04	
588	2.370000e+00	5.000000e-01	-1.162280e-04	
589	2.380000e+00	5.000000e-01	-1.164415e-04	
590	2.390000e+00	5.000000e-01	-1.166551e-04	
591	2.400000e+00	5.000000e-01	-1.168689e-04	
592	2.410000e+00	5.000000e-01	-1.170828e-04	
593	2.420000e+00	5.000000e-01	-1.172968e-04	
594	2.430000e+00	5.000000e-01	-1.175109e-04	
595	2.440000e+00	5.000000e-01	-1.177252e-04	
596	2.450000e+00	5.000000e-01	-1.179396e-04	
597	2.460000e+00	5.000000e-01	-1.181541e-04	
598	2.470000e+00	5.000000e-01	-1.183688e-04	
599	2.480000e+00	5.000000e-01	-1.185835e-04	
600	2.490000e+00	5.000000e-01	-1.187985e-04	
601	2.500000e+00	5.000000e-01	-1.190135e-04	
602	2.510000e+00	5.000000e-01	-1.192287e-04	
603	2.520000e+00	5.000000e-01	-1.194440e-04	
604	2.530000e+00	5.000000e-01	-1.196595e-04	
605	2.540000e+00	5.000000e-01	-1.198751e-04	
606	2.550000e+00	5.000000e-01	-1.200908e-04	
607	2.560000e+00	5.000000e-01	-1.203067e-04	
608	2.570000e+00	5.000000e-01	-1.205227e-04	
609	2.580000e+00	5.000000e-01	-1.207389e-04	
610	2.590000e+00	5.000000e-01	-1.209552e-04	
611	2.600000e+00	5.000000e-01	-1.211716e-04	
612	2.610000e+00	5.000000e-01	-1.213882e-04	
613	2.620000e+00	5.000000e-01	-1.216049e-04	
614	2.630000e+00	5.000000e-01	-1.218218e-04	
615	2.640000e+00	5.000000e-01	-1.220389e-04	
616	2.650000e+00	5.000000e-01	-1.222560e-04	
617	2.660000e+00	5.000000e-01	-1.224734e-04	
618	2.670000e+00	5.000000e-01	-1.226908e-04	
619	2.680000e+00	5.000000e-01	-1.229085e-04	
620	2.690000e+00	5.000000e-01	-1.231263e-04	
621	2.700000e+00	5.000000e-01	-1.233442e-04	
622	2.710000e+00	5.000000e-01	-1.235623e-04	
623	2.720000e+00	5.000000e-01	-1.237805e-04	
624	2.730000e+00	5.000000e-01	-1.239989e-04	
625	2.740000e+00	5.000000e-01	-1.242175e-04	
626	2.750000e+00	5.000000e-01	-1.244362e-04	
627	2.760000e+00	5.000000e-01	-1.246551e-04	
628	2.770000e+00	5.000000e-01	-1.248741e-04	
629	2.780000e+00	5.000000e-01	-1.250933e-04	
630	2.790000e+00	5.000000e-01	-1.253127e-04	
631	2.800000e+00	5.000000e-01	-1.255322e-04	
632	2.810000e+00	5.000000e-01	-1.257518e-04	
633	2.820000e+00	5.000000e-01	-1.259717e-04	
634	2.830000e+00	5.000000e-01	-1.261917e-04	

Index   sweep           v(1)            vds#branch      
--------------------------------------------------------------------------------
635	2.840000e+00	5.000000e-01	-1.264118e-04	
636	2.850000e+00	5.000000e-01	-1.266322e-04	
637	2.860000e+00	5.000000e-01	-1.268527e-04	
638	2.870000e+00	5.000000e-01	-1.270733e-04	
639	2.880000e+00	5.000000e-01	-1.272942e-04	
640	2.890000e+00	5.000000e-01	-1.275151e-04	
641	2.900000e+00	5.000000e-01	-1.277363e-04	
642	2.910000e+00	5.000000e-01	-1.279576e-04	
643	2.920000e+00	5.000000e-01	-1.281791e-04	
644	2.930000e+00	5.000000e-01	-1.284008e-04	
645	2.940000e+00	5.000000e-01	-1.286227e-04	
646	2.950000e+00	5.000000e-01	-1.288447e-04	
647	2.960000e+00	5.000000e-01	-1.290669e-04	
648	2.970000e+00	5.000000e-01	-1.292892e-04	
649	2.980000e+00	5.000000e-01	-1.295117e-04	
650	2.990000e+00	5.000000e-01	-1.297344e-04	
651	3.000000e+00	5.000000e-01	-1.299573e-04	
652	3.010000e+00	5.000000e-01	-1.301804e-04	
653	3.020000e+00	5.000000e-01	-1.304036e-04	
654	3.030000e+00	5.000000e-01	-1.306270e-04	
655	3.040000e+00	5.000000e-01	-1.308506e-04	
656	3.050000e+00	5.000000e-01	-1.310744e-04	
657	3.060000e+00	5.000000e-01	-1.312983e-04	
658	3.070000e+00	5.000000e-01	-1.315224e-04	
659	3.080000e+00	5.000000e-01	-1.317467e-04	
660	3.090000e+00	5.000000e-01	-1.319712e-04	
661	3.100000e+00	5.000000e-01	-1.321958e-04	
662	3.110000e+00	5.000000e-01	-1.324207e-04	
663	3.120000e+00	5.000000e-01	-1.326457e-04	
664	3.130000e+00	5.000000e-01	-1.328709e-04	
665	3.140000e+00	5.000000e-01	-1.330963e-04	
666	3.150000e+00	5.000000e-01	-1.333218e-04	
667	3.160000e+00	5.000000e-01	-1.335476e-04	
668	3.170000e+00	5.000000e-01	-1.337735e-04	
669	3.180000e+00	5.000000e-01	-1.339996e-04	
670	3.190000e+00	5.000000e-01	-1.342259e-04	
671	3.200000e+00	5.000000e-01	-1.344524e-04	
672	3.210000e+00	5.000000e-01	-1.346791e-04	
673	3.220000e+00	5.000000e-01	-1.349060e-04	
674	3.230000e+00	5.000000e-01	-1.351330e-04	
675	3.240000e+00	5.000000e-01	-1.353602e-04	
676	3.250000e+00	5.000000e-01	-1.355877e-04	
677	3.260000e+00	5.000000e-01	-1.358153e-04	
678	3.270000e+00	5.000000e-01	-1.360431e-04	
679	3.280000e+00	5.000000e-01	-1.362711e-04	
680	3.290000e+00	5.000000e-01	-1.364992e-04	
681	3.300000e+00	5.000000e-01	-1.367276e-04	
682	3.310000e+00	5.000000e-01	-1.369562e-04	
683	3.320000e+00	5.000000e-01	-1.371849e-04	
684	3.330000e+00	5.000000e-01	-1.374139e-04	
685	3.340000e+00	5.000000e-01	-1.376430e-04	
686	3.350000e+00	5.000000e-01	-1.378723e-04	
687	3.360000e+00	5.000000e-01	-1.381018e-04	
688	3.370000e+00	5.000000e-01	-1.383315e-04	
689	3.380000e+00	5.000000e-01	-1.385614e-04	
690	3.390000e+00	5.000000e-01	-1.387915e-04	
691	3.400000e+00	5.000000e-01	-1.390218e-04	
692	3.410000e+00	5.000000e-01	-1.392523e-04	

Index   sweep           v(1)            vds#branch      
--------------------------------------------------------------------------------
693	3.420000e+00	5.000000e-01	-1.394830e-04	
694	3.430000e+00	5.000000e-01	-1.397139e-04	
695	3.440000e+00	5.000000e-01	-1.399449e-04	
696	3.450000e+00	5.000000e-01	-1.401762e-04	
697	3.460000e+00	5.000000e-01	-1.404077e-04	
698	3.470000e+00	5.000000e-01	-1.406393e-04	
699	3.480000e+00	5.000000e-01	-1.408712e-04	
700	3.490000e+00	5.000000e-01	-1.411033e-04	
701	3.500000e+00	5.000000e-01	-1.413355e-04	
702	0.000000e+00	1.000000e+00	0.000000e+00	
703	1.000000e-02	1.000000e+00	-1.294255e-05	
704	2.000000e-02	1.000000e+00	-2.564260e-05	
705	3.000000e-02	1.000000e+00	-3.810169e-05	
706	4.000000e-02	1.000000e+00	-5.032134e-05	
707	5.000000e-02	1.000000e+00	-6.230305e-05	
708	6.000000e-02	1.000000e+00	-7.404831e-05	
709	7.000000e-02	1.000000e+00	-8.555862e-05	
710	8.000000e-02	1.000000e+00	-9.683544e-05	
711	9.000000e-02	1.000000e+00	-1.078802e-04	
712	1.000000e-01	1.000000e+00	-1.186945e-04	
713	1.100000e-01	1.000000e+00	-1.292796e-04	
714	1.200000e-01	1.000000e+00	-1.396370e-04	
715	1.300000e-01	1.000000e+00	-1.497682e-04	
716	1.400000e-01	1.000000e+00	-1.596746e-04	
717	1.500000e-01	1.000000e+00	-1.693576e-04	
718	1.600000e-01	1.000000e+00	-1.788186e-04	
719	1.700000e-01	1.000000e+00	-1.880589e-04	
720	1.800000e-01	1.000000e+00	-1.970801e-04	
721	1.900000e-01	1.000000e+00	-2.058836e-04	
722	2.000000e-01	1.000000e+00	-2.144706e-04	
723	2.100000e-01	1.000000e+00	-2.228426e-04	
724	2.200000e-01	1.000000e+00	-2.310010e-04	
725	2.300000e-01	1.000000e+00	-2.389472e-04	
726	2.400000e-01	1.000000e+00	-2.466827e-04	
727	2.500000e-01	1.000000e+00	-2.542088e-04	
728	2.600000e-01	1.000000e+00	-2.615269e-04	
729	2.700000e-01	1.000000e+00	-2.686385e-04	
730	2.800000e-01	1.000000e+00	-2.755451e-04	
731	2.900000e-01	1.000000e+00	-2.822481e-04	
732	3.000000e-01	1.000000e+00	-2.887491e-04	
733	3.100000e-01	1.000000e+00	-2.950496e-04	
734	3.200000e-01	1.000000e+00	-3.011511e-04	
735	3.300000e-01	1.000000e+00	-3.070555e-04	
736	3.400000e-01	1.000000e+00	-3.127643e-04	
737	3.500000e-01	1.000000e+00	-3.182795e-04	
738	3.600000e-01	1.000000e+00	-3.236028e-04	
739	3.700000e-01	1.000000e+00	-3.287364e-04	
740	3.800000e-01	1.000000e+00	-3.336823e-04	
741	3.900000e-01	1.000000e+00	-3.384430e-04	
742	4.000000e-01	1.000000e+00	-3.430210e-04	
743	4.100000e-01	1.000000e+00	-3.474190e-04	
744	4.200000e-01	1.000000e+00	-3.516402e-04	
745	4.300000e-01	1.000000e+00	-3.556879e-04	
746	4.400000e-01	1.000000e+00	-3.595660e-04	
747	4.500000e-01	1.000000e+00	-3.632786e-04	
748	4.600000e-01	1.000000e+00	-3.668304e-04	
749	4.700000e-01	1.000000e+00	-3.702266e-04	
750	4.800000e-01	1.000000e+00	-3.734730e-04	

Index   sweep           v(1)            vds#branch      
--------------------------------------------------------------------------------
751	4.900000e-01	1.000000e+00	-3.765759e-04	
752	5.000000e-01	1.000000e+00	-3.795421e-04	
753	5.100000e-01	1.000000e+00	-3.823790e-04	
754	5.200000e-01	1.000000e+00	-3.850943e-04	
755	5.300000e-01	1.000000e+00	-3.876959e-04	
756	5.400000e-01	1.000000e+00	-3.901921e-04	
757	5.500000e-01	1.000000e+00	-3.925909e-04	
758	5.600000e-01	1.000000e+00	-3.949001e-04	
759	5.700000e-01	1.000000e+00	-3.971272e-04	
760	5.800000e-01	1.000000e+00	-3.992794e-04	
761	5.900000e-01	1.000000e+00	-4.013631e-04	
762	6.000000e-01	1.000000e+00	-4.033842e-04	
763	6.100000e-01	1.000000e+00	-4.053480e-04	
764	6.200000e-01	1.000000e+00	-4.072592e-04	
765	6.300000e-01	1.000000e+00	-4.091219e-04	
766	6.400000e-01	1.000000e+00	-4.109398e-04	
767	6.500000e-01	1.000000e+00	-4.127161e-04	
768	6.600000e-01	1.000000e+00	-4.144536e-04	
769	6.700000e-01	1.000000e+00	-4.161548e-04	
770	6.800000e-01	1.000000e+00	-4.178218e-04	
771	6.900000e-01	1.000000e+00	-4.194565e-04	
772	7.000000e-01	1.000000e+00	-4.210607e-04	
773	7.100000e-01	1.000000e+00	-4.226358e-04	
774	7.200000e-01	1.000000e+00	-4.241833e-04	
775	7.300000e-01	1.000000e+00	-4.257044e-04	
776	7.400000e-01	1.000000e+00	-4.272003e-04	
777	7.500000e-01	1.000000e+00	-4.286719e-04	
778	7.600000e-01	1.000000e+00	-4.301203e-04	
779	7.700000e-01	1.000000e+00	-4.315463e-04	
780	7.800000e-01	1.000000e+00	-4.329509e-04	
781	7.900000e-01	1.000000e+00	-4.343346e-04	
782	8.000000e-01	1.000000e+00	-4.356983e-04	
783	8.100000e-01	1.000000e+00	-4.370427e-04	
784	8.200000e-01	1.000000e+00	-4.383684e-04	
785	8.300000e-01	1.000000e+00	-4.396760e-04	
786	8.400000e-01	1.000000e+00	-4.409661e-04	
787	8.500000e-01	1.000000e+00	-4.422392e-04	
788	8.600000e-01	1.000000e+00	-4.434960e-04	
789	8.700000e-01	1.000000e+00	-4.447368e-04	
790	8.800000e-01	1.000000e+00	-4.459622e-04	
791	8.900000e-01	1.000000e+00	-4.471726e-04	
792	9.000000e-01	1.000000e+00	-4.483684e-04	
793	9.100000e-01	1.000000e+00	-4.495502e-04	
794	9.200000e-01	1.000000e+00	-4.507182e-04	
795	9.300000e-01	1.000000e+00	-4.518729e-04	
796	9.400000e-01	1.000000e+00	-4.530147e-04	
797	9.500000e-01	1.000000e+00	-4.541439e-04	
798	9.600000e-01	1.000000e+00	-4.552609e-04	
799	9.700000e-01	1.000000e+00	-4.563659e-04	
800	9.800000e-01	1.000000e+00	-4.574594e-04	
801	9.900000e-01	1.000000e+00	-4.585416e-04	
802	1.000000e+00	1.000000e+00	-4.596129e-04	
803	1.010000e+00	1.000000e+00	-4.606735e-04	
804	1.020000e+00	1.000000e+00	-4.617237e-04	
805	1.030000e+00	1.000000e+00	-4.627637e-04	
806	1.040000e+00	1.000000e+00	-4.637939e-04	
807	1.050000e+00	1.000000e+00	-4.648144e-04	
808	1.060000e+00	1.000000e+00	-4.658256e-04	

Index   sweep           v(1)            vds#branch      
--------------------------------------------------------------------------------
809	1.070000e+00	1.000000e+00	-4.668277e-04	
810	1.080000e+00	1.000000e+00	-4.678209e-04	
811	1.090000e+00	1.000000e+00	-4.688053e-04	
812	1.100000e+00	1.000000e+00	-4.697813e-04	
813	1.110000e+00	1.000000e+00	-4.707491e-04	
814	1.120000e+00	1.000000e+00	-4.717087e-04	
815	1.130000e+00	1.000000e+00	-4.726605e-04	
816	1.140000e+00	1.000000e+00	-4.736047e-04	
817	1.150000e+00	1.000000e+00	-4.745413e-04	
818	1.160000e+00	1.000000e+00	-4.754706e-04	
819	1.170000e+00	1.000000e+00	-4.763927e-04	
820	1.180000e+00	1.000000e+00	-4.773079e-04	
821	1.190000e+00	1.000000e+00	-4.782162e-04	
822	1.200000e+00	1.000000e+00	-4.791179e-04	
823	1.210000e+00	1.000000e+00	-4.800131e-04	
824	1.220000e+00	1.000000e+00	-4.809019e-04	
825	1.230000e+00	1.000000e+00	-4.817845e-04	
826	1.240000e+00	1.000000e+00	-4.826610e-04	
827	1.250000e+00	1.000000e+00	-4.835316e-04	
828	1.260000e+00	1.000000e+00	-4.843963e-04	
829	1.270000e+00	1.000000e+00	-4.852554e-04	
830	1.280000e+00	1.000000e+00	-4.861089e-04	
831	1.290000e+00	1.000000e+00	-4.869569e-04	
832	1.300000e+00	1.000000e+00	-4.877997e-04	
833	1.310000e+00	1.000000e+00	-4.886372e-04	
834	1.320000e+00	1.000000e+00	-4.894697e-04	
835	1.330000e+00	1.000000e+00	-4.902971e-04	
836	1.340000e+00	1.000000e+00	-4.911197e-04	
837	1.350000e+00	1.000000e+00	-4.919375e-04	
838	1.360000e+00	1.000000e+00	-4.927506e-04	
839	1.370000e+00	1.000000e+00	-4.935591e-04	
840	1.380000e+00	1.000000e+00	-4.943631e-04	
841	1.390000e+00	1.000000e+00	-4.951628e-04	
842	1.400000e+00	1.000000e+00	-4.959581e-04	
843	1.410000e+00	1.000000e+00	-4.967492e-04	
844	1.420000e+00	1.000000e+00	-4.975362e-04	
845	1.430000e+00	1.000000e+00	-4.983191e-04	
846	1.440000e+00	1.000000e+00	-4.990981e-04	
847	1.450000e+00	1.000000e+00	-4.998732e-04	
848	1.460000e+00	1.000000e+00	-5.006445e-04	
849	1.470000e+00	1.000000e+00	-5.014120e-04	
850	1.480000e+00	1.000000e+00	-5.021759e-04	
851	1.490000e+00	1.000000e+00	-5.029361e-04	
852	1.500000e+00	1.000000e+00	-5.036929e-04	
853	1.510000e+00	1.000000e+00	-5.044462e-04	
854	1.520000e+00	1.000000e+00	-5.051961e-04	
855	1.530000e+00	1.000000e+00	-5.059427e-04	
856	1.540000e+00	1.000000e+00	-5.066860e-04	
857	1.550000e+00	1.000000e+00	-5.074262e-04	
858	1.560000e+00	1.000000e+00	-5.081632e-04	
859	1.570000e+00	1.000000e+00	-5.088971e-04	
860	1.580000e+00	1.000000e+00	-5.096280e-04	
861	1.590000e+00	1.000000e+00	-5.103559e-04	
862	1.600000e+00	1.000000e+00	-5.110810e-04	
863	1.610000e+00	1.000000e+00	-5.118032e-04	
864	1.620000e+00	1.000000e+00	-5.125225e-04	
865	1.630000e+00	1.000000e+00	-5.132392e-04	
866	1.640000e+00	1.000000e+00	-5.139531e-04	

Index   sweep           v(1)            vds#branch      
--------------------------------------------------------------------------------
867	1.650000e+00	1.000000e+00	-5.146644e-04	
868	1.660000e+00	1.000000e+00	-5.153730e-04	
869	1.670000e+00	1.000000e+00	-5.160792e-04	
870	1.680000e+00	1.000000e+00	-5.167828e-04	
871	1.690000e+00	1.000000e+00	-5.174839e-04	
872	1.700000e+00	1.000000e+00	-5.181827e-04	
873	1.710000e+00	1.000000e+00	-5.188790e-04	
874	1.720000e+00	1.000000e+00	-5.195730e-04	
875	1.730000e+00	1.000000e+00	-5.202647e-04	
876	1.740000e+00	1.000000e+00	-5.209542e-04	
877	1.750000e+00	1.000000e+00	-5.216415e-04	
878	1.760000e+00	1.000000e+00	-5.223265e-04	
879	1.770000e+00	1.000000e+00	-5.230095e-04	
880	1.780000e+00	1.000000e+00	-5.236903e-04	
881	1.790000e+00	1.000000e+00	-5.243691e-04	
882	1.800000e+00	1.000000e+00	-5.250458e-04	
883	1.810000e+00	1.000000e+00	-5.257206e-04	
884	1.820000e+00	1.000000e+00	-5.263934e-04	
885	1.830000e+00	1.000000e+00	-5.270642e-04	
886	1.840000e+00	1.000000e+00	-5.277332e-04	
887	1.850000e+00	1.000000e+00	-5.284003e-04	
888	1.860000e+00	1.000000e+00	-5.290656e-04	
889	1.870000e+00	1.000000e+00	-5.297290e-04	
890	1.880000e+00	1.000000e+00	-5.303908e-04	
891	1.890000e+00	1.000000e+00	-5.310507e-04	
892	1.900000e+00	1.000000e+00	-5.317090e-04	
893	1.910000e+00	1.000000e+00	-5.323656e-04	
894	1.920000e+00	1.000000e+00	-5.330205e-04	
895	1.930000e+00	1.000000e+00	-5.336738e-04	
896	1.940000e+00	1.000000e+00	-5.343255e-04	
897	1.950000e+00	1.000000e+00	-5.349756e-04	
898	1.960000e+00	1.000000e+00	-5.356242e-04	
899	1.970000e+00	1.000000e+00	-5.362712e-04	
900	1.980000e+00	1.000000e+00	-5.369168e-04	
901	1.990000e+00	1.000000e+00	-5.375609e-04	
902	2.000000e+00	1.000000e+00	-5.382035e-04	
903	2.010000e+00	1.000000e+00	-5.388447e-04	
904	2.020000e+00	1.000000e+00	-5.394845e-04	
905	2.030000e+00	1.000000e+00	-5.401229e-04	
906	2.040000e+00	1.000000e+00	-5.407600e-04	
907	2.050000e+00	1.000000e+00	-5.413957e-04	
908	2.060000e+00	1.000000e+00	-5.420301e-04	
909	2.070000e+00	1.000000e+00	-5.426633e-04	
910	2.080000e+00	1.000000e+00	-5.432951e-04	
911	2.090000e+00	1.000000e+00	-5.439257e-04	
912	2.100000e+00	1.000000e+00	-5.445551e-04	
913	2.110000e+00	1.000000e+00	-5.451832e-04	
914	2.120000e+00	1.000000e+00	-5.458102e-04	
915	2.130000e+00	1.000000e+00	-5.464360e-04	
916	2.140000e+00	1.000000e+00	-5.470606e-04	
917	2.150000e+00	1.000000e+00	-5.476841e-04	
918	2.160000e+00	1.000000e+00	-5.483065e-04	
919	2.170000e+00	1.000000e+00	-5.489277e-04	
920	2.180000e+00	1.000000e+00	-5.495479e-04	
921	2.190000e+00	1.000000e+00	-5.501670e-04	
922	2.200000e+00	1.000000e+00	-5.507851e-04	
923	2.210000e+00	1.000000e+00	-5.514021e-04	
924	2.220000e+00	1.000000e+00	-5.520181e-04	

Index   sweep           v(1)            vds#branch      
--------------------------------------------------------------------------------
925	2.230000e+00	1.000000e+00	-5.526331e-04	
926	2.240000e+00	1.000000e+00	-5.532472e-04	
927	2.250000e+00	1.000000e+00	-5.538602e-04	
928	2.260000e+00	1.000000e+00	-5.544723e-04	
929	2.270000e+00	1.000000e+00	-5.550835e-04	
930	2.280000e+00	1.000000e+00	-5.556937e-04	
931	2.290000e+00	1.000000e+00	-5.563030e-04	
932	2.300000e+00	1.000000e+00	-5.569114e-04	
933	2.310000e+00	1.000000e+00	-5.575189e-04	
934	2.320000e+00	1.000000e+00	-5.581256e-04	
935	2.330000e+00	1.000000e+00	-5.587314e-04	
936	2.340000e+00	1.000000e+00	-5.593363e-04	
937	2.350000e+00	1.000000e+00	-5.599404e-04	
938	2.360000e+00	1.000000e+00	-5.605437e-04	
939	2.370000e+00	1.000000e+00	-5.611462e-04	
940	2.380000e+00	1.000000e+00	-5.617479e-04	
941	2.390000e+00	1.000000e+00	-5.623488e-04	
942	2.400000e+00	1.000000e+00	-5.629490e-04	
943	2.410000e+00	1.000000e+00	-5.635484e-04	
944	2.420000e+00	1.000000e+00	-5.641470e-04	
945	2.430000e+00	1.000000e+00	-5.647449e-04	
946	2.440000e+00	1.000000e+00	-5.653421e-04	
947	2.450000e+00	1.000000e+00	-5.659386e-04	
948	2.460000e+00	1.000000e+00	-5.665344e-04	
949	2.470000e+00	1.000000e+00	-5.671294e-04	
950	2.480000e+00	1.000000e+00	-5.677238e-04	
951	2.490000e+00	1.000000e+00	-5.683176e-04	
952	2.500000e+00	1.000000e+00	-5.689107e-04	
953	2.510000e+00	1.000000e+00	-5.695031e-04	
954	2.520000e+00	1.000000e+00	-5.700949e-04	
955	2.530000e+00	1.000000e+00	-5.706860e-04	
956	2.540000e+00	1.000000e+00	-5.712766e-04	
957	2.550000e+00	1.000000e+00	-5.718665e-04	
958	2.560000e+00	1.000000e+00	-5.724558e-04	
959	2.570000e+00	1.000000e+00	-5.730445e-04	
960	2.580000e+00	1.000000e+00	-5.736327e-04	
961	2.590000e+00	1.000000e+00	-5.742203e-04	
962	2.600000e+00	1.000000e+00	-5.748073e-04	
963	2.610000e+00	1.000000e+00	-5.753937e-04	
964	2.620000e+00	1.000000e+00	-5.759797e-04	
965	2.630000e+00	1.000000e+00	-5.765650e-04	
966	2.640000e+00	1.000000e+00	-5.771499e-04	
967	2.650000e+00	1.000000e+00	-5.777342e-04	
968	2.660000e+00	1.000000e+00	-5.783180e-04	
969	2.670000e+00	1.000000e+00	-5.789013e-04	
970	2.680000e+00	1.000000e+00	-5.794841e-04	
971	2.690000e+00	1.000000e+00	-5.800664e-04	
972	2.700000e+00	1.000000e+00	-5.806483e-04	
973	2.710000e+00	1.000000e+00	-5.812296e-04	
974	2.720000e+00	1.000000e+00	-5.818105e-04	
975	2.730000e+00	1.000000e+00	-5.823909e-04	
976	2.740000e+00	1.000000e+00	-5.829709e-04	
977	2.750000e+00	1.000000e+00	-5.835504e-04	
978	2.760000e+00	1.000000e+00	-5.841295e-04	
979	2.770000e+00	1.000000e+00	-5.847082e-04	
980	2.780000e+00	1.000000e+00	-5.852864e-04	
981	2.790000e+00	1.000000e+00	-5.858642e-04	
982	2.800000e+00	1.000000e+00	-5.864417e-04	

Index   sweep           v(1)            vds#branch      
--------------------------------------------------------------------------------
983	2.810000e+00	1.000000e+00	-5.870187e-04	
984	2.820000e+00	1.000000e+00	-5.875953e-04	
985	2.830000e+00	1.000000e+00	-5.881715e-04	
986	2.840000e+00	1.000000e+00	-5.887473e-04	
987	2.850000e+00	1.000000e+00	-5.893227e-04	
988	2.860000e+00	1.000000e+00	-5.898978e-04	
989	2.870000e+00	1.000000e+00	-5.904725e-04	
990	2.880000e+00	1.000000e+00	-5.910469e-04	
991	2.890000e+00	1.000000e+00	-5.916209e-04	
992	2.900000e+00	1.000000e+00	-5.921945e-04	
993	2.910000e+00	1.000000e+00	-5.927678e-04	
994	2.920000e+00	1.000000e+00	-5.933408e-04	
995	2.930000e+00	1.000000e+00	-5.939134e-04	
996	2.940000e+00	1.000000e+00	-5.944857e-04	
997	2.950000e+00	1.000000e+00	-5.950577e-04	
998	2.960000e+00	1.000000e+00	-5.956294e-04	
999	2.970000e+00	1.000000e+00	-5.962007e-04	
1000	2.980000e+00	1.000000e+00	-5.967718e-04	
1001	2.990000e+00	1.000000e+00	-5.973425e-04	
1002	3.000000e+00	1.000000e+00	-5.979130e-04	
1003	3.010000e+00	1.000000e+00	-5.984831e-04	
1004	3.020000e+00	1.000000e+00	-5.990530e-04	
1005	3.030000e+00	1.000000e+00	-5.996226e-04	
1006	3.040000e+00	1.000000e+00	-6.001919e-04	
1007	3.050000e+00	1.000000e+00	-6.007610e-04	
1008	3.060000e+00	1.000000e+00	-6.013298e-04	
1009	3.070000e+00	1.000000e+00	-6.018983e-04	
1010	3.080000e+00	1.000000e+00	-6.024666e-04	
1011	3.090000e+00	1.000000e+00	-6.030346e-04	
1012	3.100000e+00	1.000000e+00	-6.036024e-04	
1013	3.110000e+00	1.000000e+00	-6.041699e-04	
1014	3.120000e+00	1.000000e+00	-6.047372e-04	
1015	3.130000e+00	1.000000e+00	-6.053043e-04	
1016	3.140000e+00	1.000000e+00	-6.058711e-04	
1017	3.150000e+00	1.000000e+00	-6.064378e-04	
1018	3.160000e+00	1.000000e+00	-6.070041e-04	
1019	3.170000e+00	1.000000e+00	-6.075703e-04	
1020	3.180000e+00	1.000000e+00	-6.081363e-04	
1021	3.190000e+00	1.000000e+00	-6.087020e-04	
1022	3.200000e+00	1.000000e+00	-6.092676e-04	
1023	3.210000e+00	1.000000e+00	-6.098329e-04	
1024	3.220000e+00	1.000000e+00	-6.103981e-04	
1025	3.230000e+00	1.000000e+00	-6.109630e-04	
1026	3.240000e+00	1.000000e+00	-6.115278e-04	
1027	3.250000e+00	1.000000e+00	-6.120924e-04	
1028	3.260000e+00	1.000000e+00	-6.126568e-04	
1029	3.270000e+00	1.000000e+00	-6.132210e-04	
1030	3.280000e+00	1.000000e+00	-6.137851e-04	
1031	3.290000e+00	1.000000e+00	-6.143489e-04	
1032	3.300000e+00	1.000000e+00	-6.149127e-04	
1033	3.310000e+00	1.000000e+00	-6.154762e-04	
1034	3.320000e+00	1.000000e+00	-6.160396e-04	
1035	3.330000e+00	1.000000e+00	-6.166028e-04	
1036	3.340000e+00	1.000000e+00	-6.171659e-04	
1037	3.350000e+00	1.000000e+00	-6.177288e-04	
1038	3.360000e+00	1.000000e+00	-6.182916e-04	
1039	3.370000e+00	1.000000e+00	-6.188543e-04	
1040	3.380000e+00	1.000000e+00	-6.194168e-04	

Index   sweep           v(1)            vds#branch      
--------------------------------------------------------------------------------
1041	3.390000e+00	1.000000e+00	-6.199791e-04	
1042	3.400000e+00	1.000000e+00	-6.205414e-04	
1043	3.410000e+00	1.000000e+00	-6.211035e-04	
1044	3.420000e+00	1.000000e+00	-6.216655e-04	
1045	3.430000e+00	1.000000e+00	-6.222273e-04	
1046	3.440000e+00	1.000000e+00	-6.227890e-04	
1047	3.450000e+00	1.000000e+00	-6.233507e-04	
1048	3.460000e+00	1.000000e+00	-6.239121e-04	
1049	3.470000e+00	1.000000e+00	-6.244735e-04	
1050	3.480000e+00	1.000000e+00	-6.250348e-04	
1051	3.490000e+00	1.000000e+00	-6.255960e-04	
1052	3.500000e+00	1.000000e+00	-6.261571e-04	
1053	0.000000e+00	1.500000e+00	0.000000e+00	
1054	1.000000e-02	1.500000e+00	-1.651095e-05	
1055	2.000000e-02	1.500000e+00	-3.281975e-05	
1056	3.000000e-02	1.500000e+00	-4.892736e-05	
1057	4.000000e-02	1.500000e+00	-6.483469e-05	
1058	5.000000e-02	1.500000e+00	-8.054267e-05	
1059	6.000000e-02	1.500000e+00	-9.605223e-05	
1060	7.000000e-02	1.500000e+00	-1.113643e-04	
1061	8.000000e-02	1.500000e+00	-1.264797e-04	
1062	9.000000e-02	1.500000e+00	-1.413995e-04	
1063	1.000000e-01	1.500000e+00	-1.561245e-04	
1064	1.100000e-01	1.500000e+00	-1.706555e-04	
1065	1.200000e-01	1.500000e+00	-1.849936e-04	
1066	1.300000e-01	1.500000e+00	-1.991395e-04	
1067	1.400000e-01	1.500000e+00	-2.130942e-04	
1068	1.500000e-01	1.500000e+00	-2.268585e-04	
1069	1.600000e-01	1.500000e+00	-2.404333e-04	
1070	1.700000e-01	1.500000e+00	-2.538194e-04	
1071	1.800000e-01	1.500000e+00	-2.670178e-04	
1072	1.900000e-01	1.500000e+00	-2.800293e-04	
1073	2.000000e-01	1.500000e+00	-2.928547e-04	
1074	2.100000e-01	1.500000e+00	-3.054949e-04	
1075	2.200000e-01	1.500000e+00	-3.179507e-04	
1076	2.300000e-01	1.500000e+00	-3.302229e-04	
1077	2.400000e-01	1.500000e+00	-3.423125e-04	
1078	2.500000e-01	1.500000e+00	-3.542201e-04	
1079	2.600000e-01	1.500000e+00	-3.659468e-04	
1080	2.700000e-01	1.500000e+00	-3.774932e-04	
1081	2.800000e-01	1.500000e+00	-3.888601e-04	
1082	2.900000e-01	1.500000e+00	-4.000486e-04	
1083	3.000000e-01	1.500000e+00	-4.110592e-04	
1084	3.100000e-01	1.500000e+00	-4.218929e-04	
1085	3.200000e-01	1.500000e+00	-4.325504e-04	
1086	3.300000e-01	1.500000e+00	-4.430325e-04	
1087	3.400000e-01	1.500000e+00	-4.533401e-04	
1088	3.500000e-01	1.500000e+00	-4.634740e-04	
1089	3.600000e-01	1.500000e+00	-4.734349e-04	
1090	3.700000e-01	1.500000e+00	-4.832237e-04	
1091	3.800000e-01	1.500000e+00	-4.928411e-04	
1092	3.900000e-01	1.500000e+00	-5.022879e-04	
1093	4.000000e-01	1.500000e+00	-5.115650e-04	
1094	4.100000e-01	1.500000e+00	-5.206732e-04	
1095	4.200000e-01	1.500000e+00	-5.296131e-04	
1096	4.300000e-01	1.500000e+00	-5.383857e-04	
1097	4.400000e-01	1.500000e+00	-5.469918e-04	
1098	4.500000e-01	1.500000e+00	-5.554321e-04	

Index   sweep           v(1)            vds#branch      
--------------------------------------------------------------------------------
1099	4.600000e-01	1.500000e+00	-5.637074e-04	
1100	4.700000e-01	1.500000e+00	-5.718186e-04	
1101	4.800000e-01	1.500000e+00	-5.797666e-04	
1102	4.900000e-01	1.500000e+00	-5.875520e-04	
1103	5.000000e-01	1.500000e+00	-5.951758e-04	
1104	5.100000e-01	1.500000e+00	-6.026389e-04	
1105	5.200000e-01	1.500000e+00	-6.099420e-04	
1106	5.300000e-01	1.500000e+00	-6.170862e-04	
1107	5.400000e-01	1.500000e+00	-6.240722e-04	
1108	5.500000e-01	1.500000e+00	-6.309010e-04	
1109	5.600000e-01	1.500000e+00	-6.375737e-04	
1110	5.700000e-01	1.500000e+00	-6.440911e-04	
1111	5.800000e-01	1.500000e+00	-6.504543e-04	
1112	5.900000e-01	1.500000e+00	-6.566644e-04	
1113	6.000000e-01	1.500000e+00	-6.627225e-04	
1114	6.100000e-01	1.500000e+00	-6.686298e-04	
1115	6.200000e-01	1.500000e+00	-6.743876e-04	
1116	6.300000e-01	1.500000e+00	-6.799971e-04	
1117	6.400000e-01	1.500000e+00	-6.854599e-04	
1118	6.500000e-01	1.500000e+00	-6.907774e-04	
1119	6.600000e-01	1.500000e+00	-6.959514e-04	
1120	6.700000e-01	1.500000e+00	-7.009836e-04	
1121	6.800000e-01	1.500000e+00	-7.058761e-04	
1122	6.900000e-01	1.500000e+00	-7.106309e-04	
1123	7.000000e-01	1.500000e+00	-7.152505e-04	
1124	7.100000e-01	1.500000e+00	-7.197375e-04	
1125	7.200000e-01	1.500000e+00	-7.240948e-04	
1126	7.300000e-01	1.500000e+00	-7.283255e-04	
1127	7.400000e-01	1.500000e+00	-7.324330e-04	
1128	7.500000e-01	1.500000e+00	-7.364212e-04	
1129	7.600000e-01	1.500000e+00	-7.402940e-04	
1130	7.700000e-01	1.500000e+00	-7.440559e-04	
1131	7.800000e-01	1.500000e+00	-7.477114e-04	
1132	7.900000e-01	1.500000e+00	-7.512653e-04	
1133	8.000000e-01	1.500000e+00	-7.547227e-04	
1134	8.100000e-01	1.500000e+00	-7.580886e-04	
1135	8.200000e-01	1.500000e+00	-7.613682e-04	
1136	8.300000e-01	1.500000e+00	-7.645664e-04	
1137	8.400000e-01	1.500000e+00	-7.676881e-04	
1138	8.500000e-01	1.500000e+00	-7.707383e-04	
1139	8.600000e-01	1.500000e+00	-7.737212e-04	
1140	8.700000e-01	1.500000e+00	-7.766412e-04	
1141	8.800000e-01	1.500000e+00	-7.795021e-04	
1142	8.900000e-01	1.500000e+00	-7.823075e-04	
1143	9.000000e-01	1.500000e+00	-7.850608e-04	
1144	9.100000e-01	1.500000e+00	-7.877648e-04	
1145	9.200000e-01	1.500000e+00	-7.904222e-04	
1146	9.300000e-01	1.500000e+00	-7.930355e-04	
1147	9.400000e-01	1.500000e+00	-7.956068e-04	
1148	9.500000e-01	1.500000e+00	-7.981380e-04	
1149	9.600000e-01	1.500000e+00	-8.006311e-04	
1150	9.700000e-01	1.500000e+00	-8.030874e-04	
1151	9.800000e-01	1.500000e+00	-8.055086e-04	
1152	9.900000e-01	1.500000e+00	-8.078959e-04	
1153	1.000000e+00	1.500000e+00	-8.102505e-04	
1154	1.010000e+00	1.500000e+00	-8.125735e-04	
1155	1.020000e+00	1.500000e+00	-8.148660e-04	
1156	1.030000e+00	1.500000e+00	-8.171289e-04	

Index   sweep           v(1)            vds#branch      
--------------------------------------------------------------------------------
1157	1.040000e+00	1.500000e+00	-8.193632e-04	
1158	1.050000e+00	1.500000e+00	-8.215696e-04	
1159	1.060000e+00	1.500000e+00	-8.237490e-04	
1160	1.070000e+00	1.500000e+00	-8.259021e-04	
1161	1.080000e+00	1.500000e+00	-8.280296e-04	
1162	1.090000e+00	1.500000e+00	-8.301322e-04	
1163	1.100000e+00	1.500000e+00	-8.322105e-04	
1164	1.110000e+00	1.500000e+00	-8.342652e-04	
1165	1.120000e+00	1.500000e+00	-8.362969e-04	
1166	1.130000e+00	1.500000e+00	-8.383061e-04	
1167	1.140000e+00	1.500000e+00	-8.402934e-04	
1168	1.150000e+00	1.500000e+00	-8.422593e-04	
1169	1.160000e+00	1.500000e+00	-8.442043e-04	
1170	1.170000e+00	1.500000e+00	-8.461289e-04	
1171	1.180000e+00	1.500000e+00	-8.480337e-04	
1172	1.190000e+00	1.500000e+00	-8.499190e-04	
1173	1.200000e+00	1.500000e+00	-8.517853e-04	
1174	1.210000e+00	1.500000e+00	-8.536330e-04	
1175	1.220000e+00	1.500000e+00	-8.554626e-04	
1176	1.230000e+00	1.500000e+00	-8.572745e-04	
1177	1.240000e+00	1.500000e+00	-8.590691e-04	
1178	1.250000e+00	1.500000e+00	-8.608468e-04	
1179	1.260000e+00	1.500000e+00	-8.626078e-04	
1180	1.270000e+00	1.500000e+00	-8.643527e-04	
1181	1.280000e+00	1.500000e+00	-8.660817e-04	
1182	1.290000e+00	1.500000e+00	-8.677952e-04	
1183	1.300000e+00	1.500000e+00	-8.694936e-04	
1184	1.310000e+00	1.500000e+00	-8.711771e-04	
1185	1.320000e+00	1.500000e+00	-8.728461e-04	
1186	1.330000e+00	1.500000e+00	-8.745009e-04	
1187	1.340000e+00	1.500000e+00	-8.761418e-04	
1188	1.350000e+00	1.500000e+00	-8.777690e-04	
1189	1.360000e+00	1.500000e+00	-8.793829e-04	
1190	1.370000e+00	1.500000e+00	-8.809838e-04	
1191	1.380000e+00	1.500000e+00	-8.825718e-04	
1192	1.390000e+00	1.500000e+00	-8.841474e-04	
1193	1.400000e+00	1.500000e+00	-8.857106e-04	
1194	1.410000e+00	1.500000e+00	-8.872619e-04	
1195	1.420000e+00	1.500000e+00	-8.888013e-04	
1196	1.430000e+00	1.500000e+00	-8.903293e-04	
1197	1.440000e+00	1.500000e+00	-8.918459e-04	
1198	1.450000e+00	1.500000e+00	-8.933514e-04	
1199	1.460000e+00	1.500000e+00	-8.948461e-04	
1200	1.470000e+00	1.500000e+00	-8.963301e-04	
1201	1.480000e+00	1.500000e+00	-8.978036e-04	
1202	1.490000e+00	1.500000e+00	-8.992669e-04	
1203	1.500000e+00	1.500000e+00	-9.007202e-04	
1204	1.510000e+00	1.500000e+00	-9.021637e-04	
1205	1.520000e+00	1.500000e+00	-9.035974e-04	
1206	1.530000e+00	1.500000e+00	-9.050217e-04	
1207	1.540000e+00	1.500000e+00	-9.064367e-04	
1208	1.550000e+00	1.500000e+00	-9.078426e-04	
1209	1.560000e+00	1.500000e+00	-9.092396e-04	
1210	1.570000e+00	1.500000e+00	-9.106277e-04	
1211	1.580000e+00	1.500000e+00	-9.120073e-04	
1212	1.590000e+00	1.500000e+00	-9.133783e-04	
1213	1.600000e+00	1.500000e+00	-9.147411e-04	
1214	1.610000e+00	1.500000e+00	-9.160958e-04	

Index   sweep           v(1)            vds#branch      
--------------------------------------------------------------------------------
1215	1.620000e+00	1.500000e+00	-9.174424e-04	
1216	1.630000e+00	1.500000e+00	-9.187812e-04	
1217	1.640000e+00	1.500000e+00	-9.201122e-04	
1218	1.650000e+00	1.500000e+00	-9.214357e-04	
1219	1.660000e+00	1.500000e+00	-9.227518e-04	
1220	1.670000e+00	1.500000e+00	-9.240605e-04	
1221	1.680000e+00	1.500000e+00	-9.253621e-04	
1222	1.690000e+00	1.500000e+00	-9.266566e-04	
1223	1.700000e+00	1.500000e+00	-9.279442e-04	
1224	1.710000e+00	1.500000e+00	-9.292250e-04	
1225	1.720000e+00	1.500000e+00	-9.304991e-04	
1226	1.730000e+00	1.500000e+00	-9.317666e-04	
1227	1.740000e+00	1.500000e+00	-9.330277e-04	
1228	1.750000e+00	1.500000e+00	-9.342824e-04	
1229	1.760000e+00	1.500000e+00	-9.355309e-04	
1230	1.770000e+00	1.500000e+00	-9.367732e-04	
1231	1.780000e+00	1.500000e+00	-9.380095e-04	
1232	1.790000e+00	1.500000e+00	-9.392399e-04	
1233	1.800000e+00	1.500000e+00	-9.404645e-04	
1234	1.810000e+00	1.500000e+00	-9.416833e-04	
1235	1.820000e+00	1.500000e+00	-9.428965e-04	
1236	1.830000e+00	1.500000e+00	-9.441042e-04	
1237	1.840000e+00	1.500000e+00	-9.453064e-04	
1238	1.850000e+00	1.500000e+00	-9.465032e-04	
1239	1.860000e+00	1.500000e+00	-9.476948e-04	
1240	1.870000e+00	1.500000e+00	-9.488812e-04	
1241	1.880000e+00	1.500000e+00	-9.500624e-04	
1242	1.890000e+00	1.500000e+00	-9.512387e-04	
1243	1.900000e+00	1.500000e+00	-9.524100e-04	
1244	1.910000e+00	1.500000e+00	-9.535765e-04	
1245	1.920000e+00	1.500000e+00	-9.547381e-04	
1246	1.930000e+00	1.500000e+00	-9.558951e-04	
1247	1.940000e+00	1.500000e+00	-9.570474e-04	
1248	1.950000e+00	1.500000e+00	-9.581952e-04	
1249	1.960000e+00	1.500000e+00	-9.593385e-04	
1250	1.970000e+00	1.500000e+00	-9.604773e-04	
1251	1.980000e+00	1.500000e+00	-9.616118e-04	
1252	1.990000e+00	1.500000e+00	-9.627420e-04	
1253	2.000000e+00	1.500000e+00	-9.638680e-04	
1254	2.010000e+00	1.500000e+00	-9.649899e-04	
1255	2.020000e+00	1.500000e+00	-9.661076e-04	
1256	2.030000e+00	1.500000e+00	-9.672214e-04	
1257	2.040000e+00	1.500000e+00	-9.683311e-04	
1258	2.050000e+00	1.500000e+00	-9.694370e-04	
1259	2.060000e+00	1.500000e+00	-9.705390e-04	
1260	2.070000e+00	1.500000e+00	-9.716373e-04	
1261	2.080000e+00	1.500000e+00	-9.727318e-04	
1262	2.090000e+00	1.500000e+00	-9.738226e-04	
1263	2.100000e+00	1.500000e+00	-9.749098e-04	
1264	2.110000e+00	1.500000e+00	-9.759934e-04	
1265	2.120000e+00	1.500000e+00	-9.770735e-04	
1266	2.130000e+00	1.500000e+00	-9.781502e-04	
1267	2.140000e+00	1.500000e+00	-9.792234e-04	
1268	2.150000e+00	1.500000e+00	-9.802933e-04	
1269	2.160000e+00	1.500000e+00	-9.813599e-04	
1270	2.170000e+00	1.500000e+00	-9.824232e-04	
1271	2.180000e+00	1.500000e+00	-9.834833e-04	
1272	2.190000e+00	1.500000e+00	-9.845402e-04	

Index   sweep           v(1)            vds#branch      
--------------------------------------------------------------------------------
1273	2.200000e+00	1.500000e+00	-9.855940e-04	
1274	2.210000e+00	1.500000e+00	-9.866447e-04	
1275	2.220000e+00	1.500000e+00	-9.876923e-04	
1276	2.230000e+00	1.500000e+00	-9.887370e-04	
1277	2.240000e+00	1.500000e+00	-9.897787e-04	
1278	2.250000e+00	1.500000e+00	-9.908175e-04	
1279	2.260000e+00	1.500000e+00	-9.918535e-04	
1280	2.270000e+00	1.500000e+00	-9.928866e-04	
1281	2.280000e+00	1.500000e+00	-9.939169e-04	
1282	2.290000e+00	1.500000e+00	-9.949445e-04	
1283	2.300000e+00	1.500000e+00	-9.959693e-04	
1284	2.310000e+00	1.500000e+00	-9.969915e-04	
1285	2.320000e+00	1.500000e+00	-9.980111e-04	
1286	2.330000e+00	1.500000e+00	-9.990280e-04	
1287	2.340000e+00	1.500000e+00	-1.000042e-03	
1288	2.350000e+00	1.500000e+00	-1.001054e-03	
1289	2.360000e+00	1.500000e+00	-1.002064e-03	
1290	2.370000e+00	1.500000e+00	-1.003071e-03	
1291	2.380000e+00	1.500000e+00	-1.004075e-03	
1292	2.390000e+00	1.500000e+00	-1.005077e-03	
1293	2.400000e+00	1.500000e+00	-1.006077e-03	
1294	2.410000e+00	1.500000e+00	-1.007074e-03	
1295	2.420000e+00	1.500000e+00	-1.008069e-03	
1296	2.430000e+00	1.500000e+00	-1.009062e-03	
1297	2.440000e+00	1.500000e+00	-1.010053e-03	
1298	2.450000e+00	1.500000e+00	-1.011041e-03	
1299	2.460000e+00	1.500000e+00	-1.012027e-03	
1300	2.470000e+00	1.500000e+00	-1.013011e-03	
1301	2.480000e+00	1.500000e+00	-1.013993e-03	
1302	2.490000e+00	1.500000e+00	-1.014973e-03	
1303	2.500000e+00	1.500000e+00	-1.015951e-03	
1304	2.510000e+00	1.500000e+00	-1.016926e-03	
1305	2.520000e+00	1.500000e+00	-1.017900e-03	
1306	2.530000e+00	1.500000e+00	-1.018872e-03	
1307	2.540000e+00	1.500000e+00	-1.019842e-03	
1308	2.550000e+00	1.500000e+00	-1.020809e-03	
1309	2.560000e+00	1.500000e+00	-1.021775e-03	
1310	2.570000e+00	1.500000e+00	-1.022739e-03	
1311	2.580000e+00	1.500000e+00	-1.023701e-03	
1312	2.590000e+00	1.500000e+00	-1.024662e-03	
1313	2.600000e+00	1.500000e+00	-1.025620e-03	
1314	2.610000e+00	1.500000e+00	-1.026577e-03	
1315	2.620000e+00	1.500000e+00	-1.027532e-03	
1316	2.630000e+00	1.500000e+00	-1.028485e-03	
1317	2.640000e+00	1.500000e+00	-1.029437e-03	
1318	2.650000e+00	1.500000e+00	-1.030387e-03	
1319	2.660000e+00	1.500000e+00	-1.031335e-03	
1320	2.670000e+00	1.500000e+00	-1.032281e-03	
1321	2.680000e+00	1.500000e+00	-1.033226e-03	
1322	2.690000e+00	1.500000e+00	-1.034169e-03	
1323	2.700000e+00	1.500000e+00	-1.035111e-03	
1324	2.710000e+00	1.500000e+00	-1.036051e-03	
1325	2.720000e+00	1.500000e+00	-1.036989e-03	
1326	2.730000e+00	1.500000e+00	-1.037926e-03	
1327	2.740000e+00	1.500000e+00	-1.038862e-03	
1328	2.750000e+00	1.500000e+00	-1.039796e-03	
1329	2.760000e+00	1.500000e+00	-1.040728e-03	
1330	2.770000e+00	1.500000e+00	-1.041659e-03	

Index   sweep           v(1)            vds#branch      
--------------------------------------------------------------------------------
1331	2.780000e+00	1.500000e+00	-1.042589e-03	
1332	2.790000e+00	1.500000e+00	-1.043517e-03	
1333	2.800000e+00	1.500000e+00	-1.044444e-03	
1334	2.810000e+00	1.500000e+00	-1.045369e-03	
1335	2.820000e+00	1.500000e+00	-1.046293e-03	
1336	2.830000e+00	1.500000e+00	-1.047216e-03	
1337	2.840000e+00	1.500000e+00	-1.048137e-03	
1338	2.850000e+00	1.500000e+00	-1.049057e-03	
1339	2.860000e+00	1.500000e+00	-1.049975e-03	
1340	2.870000e+00	1.500000e+00	-1.050893e-03	
1341	2.880000e+00	1.500000e+00	-1.051809e-03	
1342	2.890000e+00	1.500000e+00	-1.052724e-03	
1343	2.900000e+00	1.500000e+00	-1.053637e-03	
1344	2.910000e+00	1.500000e+00	-1.054550e-03	
1345	2.920000e+00	1.500000e+00	-1.055461e-03	
1346	2.930000e+00	1.500000e+00	-1.056371e-03	
1347	2.940000e+00	1.500000e+00	-1.057280e-03	
1348	2.950000e+00	1.500000e+00	-1.058187e-03	
1349	2.960000e+00	1.500000e+00	-1.059094e-03	
1350	2.970000e+00	1.500000e+00	-1.059999e-03	
1351	2.980000e+00	1.500000e+00	-1.060903e-03	
1352	2.990000e+00	1.500000e+00	-1.061806e-03	
1353	3.000000e+00	1.500000e+00	-1.062708e-03	
1354	3.010000e+00	1.500000e+00	-1.063609e-03	
1355	3.020000e+00	1.500000e+00	-1.064509e-03	
1356	3.030000e+00	1.500000e+00	-1.065408e-03	
1357	3.040000e+00	1.500000e+00	-1.066305e-03	
1358	3.050000e+00	1.500000e+00	-1.067202e-03	
1359	3.060000e+00	1.500000e+00	-1.068097e-03	
1360	3.070000e+00	1.500000e+00	-1.068992e-03	
1361	3.080000e+00	1.500000e+00	-1.069886e-03	
1362	3.090000e+00	1.500000e+00	-1.070778e-03	
1363	3.100000e+00	1.500000e+00	-1.071670e-03	
1364	3.110000e+00	1.500000e+00	-1.072561e-03	
1365	3.120000e+00	1.500000e+00	-1.073450e-03	
1366	3.130000e+00	1.500000e+00	-1.074339e-03	
1367	3.140000e+00	1.500000e+00	-1.075227e-03	
1368	3.150000e+00	1.500000e+00	-1.076114e-03	
1369	3.160000e+00	1.500000e+00	-1.077000e-03	
1370	3.170000e+00	1.500000e+00	-1.077885e-03	
1371	3.180000e+00	1.500000e+00	-1.078770e-03	
1372	3.190000e+00	1.500000e+00	-1.079653e-03	
1373	3.200000e+00	1.500000e+00	-1.080536e-03	
1374	3.210000e+00	1.500000e+00	-1.081417e-03	
1375	3.220000e+00	1.500000e+00	-1.082298e-03	
1376	3.230000e+00	1.500000e+00	-1.083178e-03	
1377	3.240000e+00	1.500000e+00	-1.084057e-03	
1378	3.250000e+00	1.500000e+00	-1.084936e-03	
1379	3.260000e+00	1.500000e+00	-1.085813e-03	
1380	3.270000e+00	1.500000e+00	-1.086690e-03	
1381	3.280000e+00	1.500000e+00	-1.087566e-03	
1382	3.290000e+00	1.500000e+00	-1.088441e-03	
1383	3.300000e+00	1.500000e+00	-1.089316e-03	
1384	3.310000e+00	1.500000e+00	-1.090189e-03	
1385	3.320000e+00	1.500000e+00	-1.091062e-03	
1386	3.330000e+00	1.500000e+00	-1.091934e-03	
1387	3.340000e+00	1.500000e+00	-1.092806e-03	
1388	3.350000e+00	1.500000e+00	-1.093677e-03	

Index   sweep           v(1)            vds#branch      
--------------------------------------------------------------------------------
1389	3.360000e+00	1.500000e+00	-1.094547e-03	
1390	3.370000e+00	1.500000e+00	-1.095416e-03	
1391	3.380000e+00	1.500000e+00	-1.096284e-03	
1392	3.390000e+00	1.500000e+00	-1.097152e-03	
1393	3.400000e+00	1.500000e+00	-1.098020e-03	
1394	3.410000e+00	1.500000e+00	-1.098886e-03	
1395	3.420000e+00	1.500000e+00	-1.099752e-03	
1396	3.430000e+00	1.500000e+00	-1.100617e-03	
1397	3.440000e+00	1.500000e+00	-1.101482e-03	
1398	3.450000e+00	1.500000e+00	-1.102346e-03	
1399	3.460000e+00	1.500000e+00	-1.103209e-03	
1400	3.470000e+00	1.500000e+00	-1.104072e-03	
1401	3.480000e+00	1.500000e+00	-1.104934e-03	
1402	3.490000e+00	1.500000e+00	-1.105795e-03	
1403	3.500000e+00	1.500000e+00	-1.106656e-03	
1404	0.000000e+00	2.000000e+00	0.000000e+00	
1405	1.000000e-02	2.000000e+00	-1.855829e-05	
1406	2.000000e-02	2.000000e+00	-3.694667e-05	
1407	3.000000e-02	2.000000e+00	-5.516577e-05	
1408	4.000000e-02	2.000000e+00	-7.321621e-05	
1409	5.000000e-02	2.000000e+00	-9.109860e-05	
1410	6.000000e-02	2.000000e+00	-1.088136e-04	
1411	7.000000e-02	2.000000e+00	-1.263617e-04	
1412	8.000000e-02	2.000000e+00	-1.437437e-04	
1413	9.000000e-02	2.000000e+00	-1.609600e-04	
1414	1.000000e-01	2.000000e+00	-1.780113e-04	
1415	1.100000e-01	2.000000e+00	-1.948983e-04	
1416	1.200000e-01	2.000000e+00	-2.116214e-04	
1417	1.300000e-01	2.000000e+00	-2.281814e-04	
1418	1.400000e-01	2.000000e+00	-2.445787e-04	
1419	1.500000e-01	2.000000e+00	-2.608140e-04	
1420	1.600000e-01	2.000000e+00	-2.768879e-04	
1421	1.700000e-01	2.000000e+00	-2.928010e-04	
1422	1.800000e-01	2.000000e+00	-3.085537e-04	
1423	1.900000e-01	2.000000e+00	-3.241468e-04	
1424	2.000000e-01	2.000000e+00	-3.395808e-04	
1425	2.100000e-01	2.000000e+00	-3.548562e-04	
1426	2.200000e-01	2.000000e+00	-3.699736e-04	
1427	2.300000e-01	2.000000e+00	-3.849337e-04	
1428	2.400000e-01	2.000000e+00	-3.997369e-04	
1429	2.500000e-01	2.000000e+00	-4.143839e-04	
1430	2.600000e-01	2.000000e+00	-4.288751e-04	
1431	2.700000e-01	2.000000e+00	-4.432112e-04	
1432	2.800000e-01	2.000000e+00	-4.573927e-04	
1433	2.900000e-01	2.000000e+00	-4.714202e-04	
1434	3.000000e-01	2.000000e+00	-4.852942e-04	
1435	3.100000e-01	2.000000e+00	-4.990152e-04	
1436	3.200000e-01	2.000000e+00	-5.125838e-04	
1437	3.300000e-01	2.000000e+00	-5.260006e-04	
1438	3.400000e-01	2.000000e+00	-5.392661e-04	
1439	3.500000e-01	2.000000e+00	-5.523808e-04	
1440	3.600000e-01	2.000000e+00	-5.653452e-04	
1441	3.700000e-01	2.000000e+00	-5.781600e-04	
1442	3.800000e-01	2.000000e+00	-5.908256e-04	
1443	3.900000e-01	2.000000e+00	-6.033426e-04	
1444	4.000000e-01	2.000000e+00	-6.157115e-04	
1445	4.100000e-01	2.000000e+00	-6.279328e-04	
1446	4.200000e-01	2.000000e+00	-6.400070e-04	

Index   sweep           v(1)            vds#branch      
--------------------------------------------------------------------------------
1447	4.300000e-01	2.000000e+00	-6.519348e-04	
1448	4.400000e-01	2.000000e+00	-6.637165e-04	
1449	4.500000e-01	2.000000e+00	-6.753527e-04	
1450	4.600000e-01	2.000000e+00	-6.868440e-04	
1451	4.700000e-01	2.000000e+00	-6.981908e-04	
1452	4.800000e-01	2.000000e+00	-7.093937e-04	
1453	4.900000e-01	2.000000e+00	-7.204532e-04	
1454	5.000000e-01	2.000000e+00	-7.313698e-04	
1455	5.100000e-01	2.000000e+00	-7.421439e-04	
1456	5.200000e-01	2.000000e+00	-7.527762e-04	
1457	5.300000e-01	2.000000e+00	-7.632671e-04	
1458	5.400000e-01	2.000000e+00	-7.736171e-04	
1459	5.500000e-01	2.000000e+00	-7.838268e-04	
1460	5.600000e-01	2.000000e+00	-7.938966e-04	
1461	5.700000e-01	2.000000e+00	-8.038271e-04	
1462	5.800000e-01	2.000000e+00	-8.136187e-04	
1463	5.900000e-01	2.000000e+00	-8.232720e-04	
1464	6.000000e-01	2.000000e+00	-8.327875e-04	
1465	6.100000e-01	2.000000e+00	-8.421656e-04	
1466	6.200000e-01	2.000000e+00	-8.514070e-04	
1467	6.300000e-01	2.000000e+00	-8.605120e-04	
1468	6.400000e-01	2.000000e+00	-8.694812e-04	
1469	6.500000e-01	2.000000e+00	-8.783151e-04	
1470	6.600000e-01	2.000000e+00	-8.870143e-04	
1471	6.700000e-01	2.000000e+00	-8.955792e-04	
1472	6.800000e-01	2.000000e+00	-9.040104e-04	
1473	6.900000e-01	2.000000e+00	-9.123084e-04	
1474	7.000000e-01	2.000000e+00	-9.204736e-04	
1475	7.100000e-01	2.000000e+00	-9.285068e-04	
1476	7.200000e-01	2.000000e+00	-9.364083e-04	
1477	7.300000e-01	2.000000e+00	-9.441787e-04	
1478	7.400000e-01	2.000000e+00	-9.518186e-04	
1479	7.500000e-01	2.000000e+00	-9.593286e-04	
1480	7.600000e-01	2.000000e+00	-9.667092e-04	
1481	7.700000e-01	2.000000e+00	-9.739611e-04	
1482	7.800000e-01	2.000000e+00	-9.810847e-04	
1483	7.900000e-01	2.000000e+00	-9.880807e-04	
1484	8.000000e-01	2.000000e+00	-9.949499e-04	
1485	8.100000e-01	2.000000e+00	-1.001693e-03	
1486	8.200000e-01	2.000000e+00	-1.008310e-03	
1487	8.300000e-01	2.000000e+00	-1.014802e-03	
1488	8.400000e-01	2.000000e+00	-1.021171e-03	
1489	8.500000e-01	2.000000e+00	-1.027415e-03	
1490	8.600000e-01	2.000000e+00	-1.033538e-03	
1491	8.700000e-01	2.000000e+00	-1.039538e-03	
1492	8.800000e-01	2.000000e+00	-1.045418e-03	
1493	8.900000e-01	2.000000e+00	-1.051178e-03	
1494	9.000000e-01	2.000000e+00	-1.056820e-03	
1495	9.100000e-01	2.000000e+00	-1.062344e-03	
1496	9.200000e-01	2.000000e+00	-1.067752e-03	
1497	9.300000e-01	2.000000e+00	-1.073044e-03	
1498	9.400000e-01	2.000000e+00	-1.078224e-03	
1499	9.500000e-01	2.000000e+00	-1.083292e-03	
1500	9.600000e-01	2.000000e+00	-1.088249e-03	
1501	9.700000e-01	2.000000e+00	-1.093099e-03	
1502	9.800000e-01	2.000000e+00	-1.097843e-03	
1503	9.900000e-01	2.000000e+00	-1.102483e-03	
1504	1.000000e+00	2.000000e+00	-1.107022e-03	

Index   sweep           v(1)            vds#branch      
--------------------------------------------------------------------------------
1505	1.010000e+00	2.000000e+00	-1.111463e-03	
1506	1.020000e+00	2.000000e+00	-1.115809e-03	
1507	1.030000e+00	2.000000e+00	-1.120062e-03	
1508	1.040000e+00	2.000000e+00	-1.124226e-03	
1509	1.050000e+00	2.000000e+00	-1.128305e-03	
1510	1.060000e+00	2.000000e+00	-1.132302e-03	
1511	1.070000e+00	2.000000e+00	-1.136220e-03	
1512	1.080000e+00	2.000000e+00	-1.140064e-03	
1513	1.090000e+00	2.000000e+00	-1.143836e-03	
1514	1.100000e+00	2.000000e+00	-1.147541e-03	
1515	1.110000e+00	2.000000e+00	-1.151182e-03	
1516	1.120000e+00	2.000000e+00	-1.154762e-03	
1517	1.130000e+00	2.000000e+00	-1.158285e-03	
1518	1.140000e+00	2.000000e+00	-1.161754e-03	
1519	1.150000e+00	2.000000e+00	-1.165170e-03	
1520	1.160000e+00	2.000000e+00	-1.168538e-03	
1521	1.170000e+00	2.000000e+00	-1.171859e-03	
1522	1.180000e+00	2.000000e+00	-1.175136e-03	
1523	1.190000e+00	2.000000e+00	-1.178370e-03	
1524	1.200000e+00	2.000000e+00	-1.181563e-03	
1525	1.210000e+00	2.000000e+00	-1.184717e-03	
1526	1.220000e+00	2.000000e+00	-1.187834e-03	
1527	1.230000e+00	2.000000e+00	-1.190915e-03	
1528	1.240000e+00	2.000000e+00	-1.193961e-03	
1529	1.250000e+00	2.000000e+00	-1.196972e-03	
1530	1.260000e+00	2.000000e+00	-1.199951e-03	
1531	1.270000e+00	2.000000e+00	-1.202898e-03	
1532	1.280000e+00	2.000000e+00	-1.205815e-03	
1533	1.290000e+00	2.000000e+00	-1.208700e-03	
1534	1.300000e+00	2.000000e+00	-1.211557e-03	
1535	1.310000e+00	2.000000e+00	-1.214384e-03	
1536	1.320000e+00	2.000000e+00	-1.217184e-03	
1537	1.330000e+00	2.000000e+00	-1.219956e-03	
1538	1.340000e+00	2.000000e+00	-1.222701e-03	
1539	1.350000e+00	2.000000e+00	-1.225419e-03	
1540	1.360000e+00	2.000000e+00	-1.228112e-03	
1541	1.370000e+00	2.000000e+00	-1.230780e-03	
1542	1.380000e+00	2.000000e+00	-1.233423e-03	
1543	1.390000e+00	2.000000e+00	-1.236042e-03	
1544	1.400000e+00	2.000000e+00	-1.238637e-03	
1545	1.410000e+00	2.000000e+00	-1.241208e-03	
1546	1.420000e+00	2.000000e+00	-1.243757e-03	
1547	1.430000e+00	2.000000e+00	-1.246283e-03	
1548	1.440000e+00	2.000000e+00	-1.248787e-03	
1549	1.450000e+00	2.000000e+00	-1.251269e-03	
1550	1.460000e+00	2.000000e+00	-1.253731e-03	
1551	1.470000e+00	2.000000e+00	-1.256171e-03	
1552	1.480000e+00	2.000000e+00	-1.258591e-03	
1553	1.490000e+00	2.000000e+00	-1.260991e-03	
1554	1.500000e+00	2.000000e+00	-1.263371e-03	
1555	1.510000e+00	2.000000e+00	-1.265732e-03	
1556	1.520000e+00	2.000000e+00	-1.268074e-03	
1557	1.530000e+00	2.000000e+00	-1.270397e-03	
1558	1.540000e+00	2.000000e+00	-1.272702e-03	
1559	1.550000e+00	2.000000e+00	-1.274988e-03	
1560	1.560000e+00	2.000000e+00	-1.277258e-03	
1561	1.570000e+00	2.000000e+00	-1.279509e-03	
1562	1.580000e+00	2.000000e+00	-1.281744e-03	

Index   sweep           v(1)            vds#branch      
--------------------------------------------------------------------------------
1563	1.590000e+00	2.000000e+00	-1.283962e-03	
1564	1.600000e+00	2.000000e+00	-1.286164e-03	
1565	1.610000e+00	2.000000e+00	-1.288349e-03	
1566	1.620000e+00	2.000000e+00	-1.290519e-03	
1567	1.630000e+00	2.000000e+00	-1.292673e-03	
1568	1.640000e+00	2.000000e+00	-1.294811e-03	
1569	1.650000e+00	2.000000e+00	-1.296935e-03	
1570	1.660000e+00	2.000000e+00	-1.299044e-03	
1571	1.670000e+00	2.000000e+00	-1.301138e-03	
1572	1.680000e+00	2.000000e+00	-1.303218e-03	
1573	1.690000e+00	2.000000e+00	-1.305284e-03	
1574	1.700000e+00	2.000000e+00	-1.307336e-03	
1575	1.710000e+00	2.000000e+00	-1.309375e-03	
1576	1.720000e+00	2.000000e+00	-1.311400e-03	
1577	1.730000e+00	2.000000e+00	-1.313412e-03	
1578	1.740000e+00	2.000000e+00	-1.315412e-03	
1579	1.750000e+00	2.000000e+00	-1.317398e-03	
1580	1.760000e+00	2.000000e+00	-1.319372e-03	
1581	1.770000e+00	2.000000e+00	-1.321334e-03	
1582	1.780000e+00	2.000000e+00	-1.323284e-03	
1583	1.790000e+00	2.000000e+00	-1.325222e-03	
1584	1.800000e+00	2.000000e+00	-1.327149e-03	
1585	1.810000e+00	2.000000e+00	-1.329063e-03	
1586	1.820000e+00	2.000000e+00	-1.330967e-03	
1587	1.830000e+00	2.000000e+00	-1.332860e-03	
1588	1.840000e+00	2.000000e+00	-1.334741e-03	
1589	1.850000e+00	2.000000e+00	-1.336612e-03	
1590	1.860000e+00	2.000000e+00	-1.338473e-03	
1591	1.870000e+00	2.000000e+00	-1.340323e-03	
1592	1.880000e+00	2.000000e+00	-1.342162e-03	
1593	1.890000e+00	2.000000e+00	-1.343992e-03	
1594	1.900000e+00	2.000000e+00	-1.345812e-03	
1595	1.910000e+00	2.000000e+00	-1.347622e-03	
1596	1.920000e+00	2.000000e+00	-1.349423e-03	
1597	1.930000e+00	2.000000e+00	-1.351214e-03	
1598	1.940000e+00	2.000000e+00	-1.352996e-03	
1599	1.950000e+00	2.000000e+00	-1.354768e-03	
1600	1.960000e+00	2.000000e+00	-1.356532e-03	
1601	1.970000e+00	2.000000e+00	-1.358287e-03	
1602	1.980000e+00	2.000000e+00	-1.360033e-03	
1603	1.990000e+00	2.000000e+00	-1.361770e-03	
1604	2.000000e+00	2.000000e+00	-1.363499e-03	
1605	2.010000e+00	2.000000e+00	-1.365220e-03	
1606	2.020000e+00	2.000000e+00	-1.366932e-03	
1607	2.030000e+00	2.000000e+00	-1.368637e-03	
1608	2.040000e+00	2.000000e+00	-1.370333e-03	
1609	2.050000e+00	2.000000e+00	-1.372022e-03	
1610	2.060000e+00	2.000000e+00	-1.373703e-03	
1611	2.070000e+00	2.000000e+00	-1.375376e-03	
1612	2.080000e+00	2.000000e+00	-1.377042e-03	
1613	2.090000e+00	2.000000e+00	-1.378700e-03	
1614	2.100000e+00	2.000000e+00	-1.380351e-03	
1615	2.110000e+00	2.000000e+00	-1.381995e-03	
1616	2.120000e+00	2.000000e+00	-1.383632e-03	
1617	2.130000e+00	2.000000e+00	-1.385262e-03	
1618	2.140000e+00	2.000000e+00	-1.386885e-03	
1619	2.150000e+00	2.000000e+00	-1.388502e-03	
1620	2.160000e+00	2.000000e+00	-1.390111e-03	

Index   sweep           v(1)            vds#branch      
--------------------------------------------------------------------------------
1621	2.170000e+00	2.000000e+00	-1.391714e-03	
1622	2.180000e+00	2.000000e+00	-1.393311e-03	
1623	2.190000e+00	2.000000e+00	-1.394901e-03	
1624	2.200000e+00	2.000000e+00	-1.396485e-03	
1625	2.210000e+00	2.000000e+00	-1.398063e-03	
1626	2.220000e+00	2.000000e+00	-1.399635e-03	
1627	2.230000e+00	2.000000e+00	-1.401200e-03	
1628	2.240000e+00	2.000000e+00	-1.402760e-03	
1629	2.250000e+00	2.000000e+00	-1.404314e-03	
1630	2.260000e+00	2.000000e+00	-1.405862e-03	
1631	2.270000e+00	2.000000e+00	-1.407404e-03	
1632	2.280000e+00	2.000000e+00	-1.408941e-03	
1633	2.290000e+00	2.000000e+00	-1.410472e-03	
1634	2.300000e+00	2.000000e+00	-1.411997e-03	
1635	2.310000e+00	2.000000e+00	-1.413518e-03	
1636	2.320000e+00	2.000000e+00	-1.415033e-03	
1637	2.330000e+00	2.000000e+00	-1.416542e-03	
1638	2.340000e+00	2.000000e+00	-1.418047e-03	
1639	2.350000e+00	2.000000e+00	-1.419546e-03	
1640	2.360000e+00	2.000000e+00	-1.421041e-03	
1641	2.370000e+00	2.000000e+00	-1.422530e-03	
1642	2.380000e+00	2.000000e+00	-1.424014e-03	
1643	2.390000e+00	2.000000e+00	-1.425494e-03	
1644	2.400000e+00	2.000000e+00	-1.426969e-03	
1645	2.410000e+00	2.000000e+00	-1.428439e-03	
1646	2.420000e+00	2.000000e+00	-1.429905e-03	
1647	2.430000e+00	2.000000e+00	-1.431365e-03	
1648	2.440000e+00	2.000000e+00	-1.432822e-03	
1649	2.450000e+00	2.000000e+00	-1.434274e-03	
1650	2.460000e+00	2.000000e+00	-1.435721e-03	
1651	2.470000e+00	2.000000e+00	-1.437164e-03	
1652	2.480000e+00	2.000000e+00	-1.438603e-03	
1653	2.490000e+00	2.000000e+00	-1.440038e-03	
1654	2.500000e+00	2.000000e+00	-1.441468e-03	
1655	2.510000e+00	2.000000e+00	-1.442894e-03	
1656	2.520000e+00	2.000000e+00	-1.444316e-03	
1657	2.530000e+00	2.000000e+00	-1.445734e-03	
1658	2.540000e+00	2.000000e+00	-1.447149e-03	
1659	2.550000e+00	2.000000e+00	-1.448559e-03	
1660	2.560000e+00	2.000000e+00	-1.449965e-03	
1661	2.570000e+00	2.000000e+00	-1.451368e-03	
1662	2.580000e+00	2.000000e+00	-1.452766e-03	
[...]
2398	2.920000e+00	3.000000e+00	-2.297534e-03	
2399	2.930000e+00	3.000000e+00	-2.299760e-03	
2400	2.940000e+00	3.000000e+00	-2.301979e-03	
2401	2.950000e+00	3.000000e+00	-2.304193e-03	
2402	2.960000e+00	3.000000e+00	-2.306399e-03	
2403	2.970000e+00	3.000000e+00	-2.308600e-03	
2404	2.980000e+00	3.000000e+00	-2.310794e-03	
2405	2.990000e+00	3.000000e+00	-2.312982e-03	
2406	3.000000e+00	3.000000e+00	-2.315165e-03	
2407	3.010000e+00	3.000000e+00	-2.317341e-03	
2408	3.020000e+00	3.000000e+00	-2.319511e-03	
2409	3.030000e+00	3.000000e+00	-2.321675e-03	
2410	3.040000e+00	3.000000e+00	-2.323834e-03	
2411	3.050000e+00	3.000000e+00	-2.325986e-03	
2412	3.060000e+00	3.000000e+00	-2.328133e-03	
2413	3.070000e+00	3.000000e+00	-2.330275e-03	
2414	3.080000e+00	3.000000e+00	-2.332410e-03	
2415	3.090000e+00	3.000000e+00	-2.334541e-03	
2416	3.100000e+00	3.000000e+00	-2.336665e-03	
2417	3.110000e+00	3.000000e+00	-2.338785e-03	
2418	3.120000e+00	3.000000e+00	-2.340899e-03	
2419	3.130000e+00	3.000000e+00	-2.343008e-03	
2420	3.140000e+00	3.000000e+00	-2.345111e-03	
2421	3.150000e+00	3.000000e+00	-2.347209e-03	
2422	3.160000e+00	3.000000e+00	-2.349302e-03	
2423	3.170000e+00	3.000000e+00	-2.351391e-03	
2424	3.180000e+00	3.000000e+00	-2.353474e-03	
2425	3.190000e+00	3.000000e+00	-2.355552e-03	
2426	3.200000e+00	3.000000e+00	-2.357625e-03	
2427	3.210000e+00	3.000000e+00	-2.359693e-03	
2428	3.220000e+00	3.000000e+00	-2.361756e-03	
2429	3.230000e+00	3.000000e+00	-2.363815e-03	
2430	3.240000e+00	3.000000e+00	-2.365869e-03	
2431	3.250000e+00	3.000000e+00	-2.367918e-03	
2432	3.260000e+00	3.000000e+00	-2.369963e-03	

Index   sweep           v(1)            vds#branch      
--------------------------------------------------------------------------------
2433	3.270000e+00	3.000000e+00	-2.372003e-03	
2434	3.280000e+00	3.000000e+00	-2.374038e-03	
2435	3.290000e+00	3.000000e+00	-2.376069e-03	
2436	3.300000e+00	3.000000e+00	-2.378096e-03	
2437	3.310000e+00	3.000000e+00	-2.380118e-03	
2438	3.320000e+00	3.000000e+00	-2.382135e-03	
2439	3.330000e+00	3.000000e+00	-2.384149e-03	
2440	3.340000e+00	3.000000e+00	-2.386158e-03	
2441	3.350000e+00	3.000000e+00	-2.388163e-03	
2442	3.360000e+00	3.000000e+00	-2.390163e-03	
2443	3.370000e+00	3.000000e+00	-2.392160e-03	
2444	3.380000e+00	3.000000e+00	-2.394152e-03	
2445	3.390000e+00	3.000000e+00	-2.396140e-03	
2446	3.400000e+00	3.000000e+00	-2.398125e-03	
2447	3.410000e+00	3.000000e+00	-2.400105e-03	
2448	3.420000e+00	3.000000e+00	-2.402081e-03	
2449	3.430000e+00	3.000000e+00	-2.404054e-03	
2450	3.440000e+00	3.000000e+00	-2.406022e-03	
2451	3.450000e+00	3.000000e+00	-2.407987e-03	
2452	3.460000e+00	3.000000e+00	-2.409948e-03	
2453	3.470000e+00	3.000000e+00	-2.411905e-03	
2454	3.480000e+00	3.000000e+00	-2.413858e-03	
2455	3.490000e+00	3.000000e+00	-2.415808e-03	
2456	3.500000e+00	3.000000e+00	-2.417753e-03	
2457	0.000000e+00	3.500000e+00	0.000000e+00	
2458	1.000000e-02	3.500000e+00	-2.114752e-05	
2459	2.000000e-02	3.500000e+00	-4.218522e-05	
2460	3.000000e-02	3.500000e+00	-6.311334e-05	
2461	4.000000e-02	3.500000e+00	-8.393213e-05	
2462	5.000000e-02	3.500000e+00	-1.046418e-04	
2463	6.000000e-02	3.500000e+00	-1.252427e-04	
2464	7.000000e-02	3.500000e+00	-1.457349e-04	
2465	8.000000e-02	3.500000e+00	-1.661187e-04	
2466	9.000000e-02	3.500000e+00	-1.863944e-04	
2467	1.000000e-01	3.500000e+00	-2.065622e-04	
2468	1.100000e-01	3.500000e+00	-2.266224e-04	
2469	1.200000e-01	3.500000e+00	-2.465751e-04	
2470	1.300000e-01	3.500000e+00	-2.664206e-04	
2471	1.400000e-01	3.500000e+00	-2.861592e-04	
2472	1.500000e-01	3.500000e+00	-3.057911e-04	
2473	1.600000e-01	3.500000e+00	-3.253164e-04	
2474	1.700000e-01	3.500000e+00	-3.447355e-04	
2475	1.800000e-01	3.500000e+00	-3.640486e-04	
2476	1.900000e-01	3.500000e+00	-3.832559e-04	
2477	2.000000e-01	3.500000e+00	-4.023577e-04	
2478	2.100000e-01	3.500000e+00	-4.213541e-04	
2479	2.200000e-01	3.500000e+00	-4.402454e-04	
2480	2.300000e-01	3.500000e+00	-4.590319e-04	
2481	2.400000e-01	3.500000e+00	-4.777137e-04	
2482	2.500000e-01	3.500000e+00	-4.962911e-04	
2483	2.600000e-01	3.500000e+00	-5.147643e-04	
2484	2.700000e-01	3.500000e+00	-5.331335e-04	
2485	2.800000e-01	3.500000e+00	-5.513991e-04	
2486	2.900000e-01	3.500000e+00	-5.695611e-04	
2487	3.000000e-01	3.500000e+00	-5.876198e-04	
2488	3.100000e-01	3.500000e+00	-6.055754e-04	
2489	3.200000e-01	3.500000e+00	-6.234283e-04	
2490	3.300000e-01	3.500000e+00	-6.411785e-04	

Index   sweep           v(1)            vds#branch      
--------------------------------------------------------------------------------
2491	3.400000e-01	3.500000e+00	-6.588263e-04	
2492	3.500000e-01	3.500000e+00	-6.763719e-04	
2493	3.600000e-01	3.500000e+00	-6.938156e-04	
2494	3.700000e-01	3.500000e+00	-7.111576e-04	
2495	3.800000e-01	3.500000e+00	-7.283980e-04	
2496	3.900000e-01	3.500000e+00	-7.455372e-04	
2497	4.000000e-01	3.500000e+00	-7.625752e-04	
2498	4.100000e-01	3.500000e+00	-7.795125e-04	
2499	4.200000e-01	3.500000e+00	-7.963490e-04	
2500	4.300000e-01	3.500000e+00	-8.130852e-04	
2501	4.400000e-01	3.500000e+00	-8.297211e-04	
2502	4.500000e-01	3.500000e+00	-8.462571e-04	
2503	4.600000e-01	3.500000e+00	-8.626933e-04	
2504	4.700000e-01	3.500000e+00	-8.790299e-04	
2505	4.800000e-01	3.500000e+00	-8.952671e-04	
2506	4.900000e-01	3.500000e+00	-9.114053e-04	
2507	5.000000e-01	3.500000e+00	-9.274445e-04	
2508	5.100000e-01	3.500000e+00	-9.433849e-04	
2509	5.200000e-01	3.500000e+00	-9.592269e-04	
2510	5.300000e-01	3.500000e+00	-9.749706e-04	
2511	5.400000e-01	3.500000e+00	-9.906162e-04	
2512	5.500000e-01	3.500000e+00	-1.006164e-03	
2513	5.600000e-01	3.500000e+00	-1.021614e-03	
2514	5.700000e-01	3.500000e+00	-1.036967e-03	
2515	5.800000e-01	3.500000e+00	-1.052222e-03	
2516	5.900000e-01	3.500000e+00	-1.067380e-03	
2517	6.000000e-01	3.500000e+00	-1.082442e-03	
2518	6.100000e-01	3.500000e+00	-1.097407e-03	
2519	6.200000e-01	3.500000e+00	-1.112275e-03	
2520	6.300000e-01	3.500000e+00	-1.127047e-03	
2521	6.400000e-01	3.500000e+00	-1.141723e-03	
2522	6.500000e-01	3.500000e+00	-1.156304e-03	
2523	6.600000e-01	3.500000e+00	-1.170788e-03	
2524	6.700000e-01	3.500000e+00	-1.185178e-03	
2525	6.800000e-01	3.500000e+00	-1.199472e-03	
2526	6.900000e-01	3.500000e+00	-1.213671e-03	
2527	7.000000e-01	3.500000e+00	-1.227775e-03	
2528	7.100000e-01	3.500000e+00	-1.241785e-03	
2529	7.200000e-01	3.500000e+00	-1.255700e-03	
2530	7.300000e-01	3.500000e+00	-1.269522e-03	
2531	7.400000e-01	3.500000e+00	-1.283249e-03	
2532	7.500000e-01	3.500000e+00	-1.296882e-03	
2533	7.600000e-01	3.500000e+00	-1.310422e-03	
2534	7.700000e-01	3.500000e+00	-1.323868e-03	
2535	7.800000e-01	3.500000e+00	-1.337221e-03	
2536	7.900000e-01	3.500000e+00	-1.350481e-03	
2537	8.000000e-01	3.500000e+00	-1.363648e-03	
2538	8.100000e-01	3.500000e+00	-1.376723e-03	
2539	8.200000e-01	3.500000e+00	-1.389705e-03	
2540	8.300000e-01	3.500000e+00	-1.402595e-03	
2541	8.400000e-01	3.500000e+00	-1.415393e-03	
2542	8.500000e-01	3.500000e+00	-1.428099e-03	
2543	8.600000e-01	3.500000e+00	-1.440713e-03	
2544	8.700000e-01	3.500000e+00	-1.453236e-03	
2545	8.800000e-01	3.500000e+00	-1.465668e-03	
2546	8.900000e-01	3.500000e+00	-1.478008e-03	
2547	9.000000e-01	3.500000e+00	-1.490258e-03	
2548	9.100000e-01	3.500000e+00	-1.502417e-03	

Index   sweep           v(1)            vds#branch      
--------------------------------------------------------------------------------
2549	9.200000e-01	3.500000e+00	-1.514486e-03	
2550	9.300000e-01	3.500000e+00	-1.526464e-03	
2551	9.400000e-01	3.500000e+00	-1.538352e-03	
2552	9.500000e-01	3.500000e+00	-1.550150e-03	
2553	9.600000e-01	3.500000e+00	-1.561858e-03	
2554	9.700000e-01	3.500000e+00	-1.573477e-03	
2555	9.800000e-01	3.500000e+00	-1.585006e-03	
2556	9.900000e-01	3.500000e+00	-1.596447e-03	
2557	1.000000e+00	3.500000e+00	-1.607798e-03	
2558	1.010000e+00	3.500000e+00	-1.619060e-03	
2559	1.020000e+00	3.500000e+00	-1.630234e-03	
2560	1.030000e+00	3.500000e+00	-1.641319e-03	
2561	1.040000e+00	3.500000e+00	-1.652316e-03	
2562	1.050000e+00	3.500000e+00	-1.663225e-03	
2563	1.060000e+00	3.500000e+00	-1.674046e-03	
2564	1.070000e+00	3.500000e+00	-1.684780e-03	
2565	1.080000e+00	3.500000e+00	-1.695426e-03	
2566	1.090000e+00	3.500000e+00	-1.705984e-03	
2567	1.100000e+00	3.500000e+00	-1.716456e-03	
2568	1.110000e+00	3.500000e+00	-1.726840e-03	
2569	1.120000e+00	3.500000e+00	-1.737138e-03	
2570	1.130000e+00	3.500000e+00	-1.747349e-03	
2571	1.140000e+00	3.500000e+00	-1.757473e-03	
2572	1.150000e+00	3.500000e+00	-1.767512e-03	
2573	1.160000e+00	3.500000e+00	-1.777464e-03	
2574	1.170000e+00	3.500000e+00	-1.787331e-03	
2575	1.180000e+00	3.500000e+00	-1.797111e-03	
2576	1.190000e+00	3.500000e+00	-1.806807e-03	
2577	1.200000e+00	3.500000e+00	-1.816417e-03	
2578	1.210000e+00	3.500000e+00	-1.825941e-03	
2579	1.220000e+00	3.500000e+00	-1.835381e-03	
2580	1.230000e+00	3.500000e+00	-1.844737e-03	
2581	1.240000e+00	3.500000e+00	-1.854007e-03	
2582	1.250000e+00	3.500000e+00	-1.863193e-03	
2583	1.260000e+00	3.500000e+00	-1.872295e-03	
2584	1.270000e+00	3.500000e+00	-1.881313e-03	
2585	1.280000e+00	3.500000e+00	-1.890247e-03	
2586	1.290000e+00	3.500000e+00	-1.899097e-03	
2587	1.300000e+00	3.500000e+00	-1.907864e-03	
2588	1.310000e+00	3.500000e+00	-1.916548e-03	
2589	1.320000e+00	3.500000e+00	-1.925148e-03	
2590	1.330000e+00	3.500000e+00	-1.933666e-03	
2591	1.340000e+00	3.500000e+00	-1.942101e-03	
2592	1.350000e+00	3.500000e+00	-1.950453e-03	
2593	1.360000e+00	3.500000e+00	-1.958723e-03	
2594	1.370000e+00	3.500000e+00	-1.966911e-03	
2595	1.380000e+00	3.500000e+00	-1.975017e-03	
2596	1.390000e+00	3.500000e+00	-1.983041e-03	
2597	1.400000e+00	3.500000e+00	-1.990983e-03	
2598	1.410000e+00	3.500000e+00	-1.998844e-03	
2599	1.420000e+00	3.500000e+00	-2.006624e-03	
2600	1.430000e+00	3.500000e+00	-2.014323e-03	
2601	1.440000e+00	3.500000e+00	-2.021941e-03	
2602	1.450000e+00	3.500000e+00	-2.029479e-03	
2603	1.460000e+00	3.500000e+00	-2.036936e-03	
2604	1.470000e+00	3.500000e+00	-2.044313e-03	
2605	1.480000e+00	3.500000e+00	-2.051610e-03	
2606	1.490000e+00	3.500000e+00	-2.058827e-03	

Index   sweep           v(1)            vds#branch      
--------------------------------------------------------------------------------
2607	1.500000e+00	3.500000e+00	-2.065965e-03	
2608	1.510000e+00	3.500000e+00	-2.073024e-03	
2609	1.520000e+00	3.500000e+00	-2.080004e-03	
2610	1.530000e+00	3.500000e+00	-2.086905e-03	
2611	1.540000e+00	3.500000e+00	-2.093728e-03	
2612	1.550000e+00	3.500000e+00	-2.100472e-03	
2613	1.560000e+00	3.500000e+00	-2.107139e-03	
2614	1.570000e+00	3.500000e+00	-2.113728e-03	
2615	1.580000e+00	3.500000e+00	-2.120239e-03	
2616	1.590000e+00	3.500000e+00	-2.126674e-03	
2617	1.600000e+00	3.500000e+00	-2.133032e-03	
2618	1.610000e+00	3.500000e+00	-2.139314e-03	
2619	1.620000e+00	3.500000e+00	-2.145520e-03	
2620	1.630000e+00	3.500000e+00	-2.151651e-03	
2621	1.640000e+00	3.500000e+00	-2.157707e-03	
2622	1.650000e+00	3.500000e+00	-2.163688e-03	
2623	1.660000e+00	3.500000e+00	-2.169596e-03	
2624	1.670000e+00	3.500000e+00	-2.175430e-03	
2625	1.680000e+00	3.500000e+00	-2.181192e-03	
2626	1.690000e+00	3.500000e+00	-2.186881e-03	
2627	1.700000e+00	3.500000e+00	-2.192500e-03	
2628	1.710000e+00	3.500000e+00	-2.198048e-03	
2629	1.720000e+00	3.500000e+00	-2.203526e-03	
2630	1.730000e+00	3.500000e+00	-2.208936e-03	
2631	1.740000e+00	3.500000e+00	-2.214278e-03	
2632	1.750000e+00	3.500000e+00	-2.219553e-03	
2633	1.760000e+00	3.500000e+00	-2.224763e-03	
2634	1.770000e+00	3.500000e+00	-2.229909e-03	
2635	1.780000e+00	3.500000e+00	-2.234993e-03	
2636	1.790000e+00	3.500000e+00	-2.240015e-03	
2637	1.800000e+00	3.500000e+00	-2.244978e-03	
2638	1.810000e+00	3.500000e+00	-2.249882e-03	
2639	1.820000e+00	3.500000e+00	-2.254730e-03	
2640	1.830000e+00	3.500000e+00	-2.259524e-03	
2641	1.840000e+00	3.500000e+00	-2.264265e-03	
2642	1.850000e+00	3.500000e+00	-2.268955e-03	
2643	1.860000e+00	3.500000e+00	-2.273596e-03	
2644	1.870000e+00	3.500000e+00	-2.278190e-03	
2645	1.880000e+00	3.500000e+00	-2.282740e-03	
2646	1.890000e+00	3.500000e+00	-2.287247e-03	
2647	1.900000e+00	3.500000e+00	-2.291713e-03	
2648	1.910000e+00	3.500000e+00	-2.296140e-03	
2649	1.920000e+00	3.500000e+00	-2.300530e-03	
2650	1.930000e+00	3.500000e+00	-2.304884e-03	
2651	1.940000e+00	3.500000e+00	-2.309206e-03	
2652	1.950000e+00	3.500000e+00	-2.313495e-03	
2653	1.960000e+00	3.500000e+00	-2.317754e-03	
2654	1.970000e+00	3.500000e+00	-2.321985e-03	
2655	1.980000e+00	3.500000e+00	-2.326188e-03	
2656	1.990000e+00	3.500000e+00	-2.330364e-03	
2657	2.000000e+00	3.500000e+00	-2.334516e-03	
2658	2.010000e+00	3.500000e+00	-2.338643e-03	
2659	2.020000e+00	3.500000e+00	-2.342747e-03	
2660	2.030000e+00	3.500000e+00	-2.346828e-03	
2661	2.040000e+00	3.500000e+00	-2.350888e-03	
2662	2.050000e+00	3.500000e+00	-2.354926e-03	
2663	2.060000e+00	3.500000e+00	-2.358944e-03	
2664	2.070000e+00	3.500000e+00	-2.362941e-03	

Index   sweep           v(1)            vds#branch      
--------------------------------------------------------------------------------
2665	2.080000e+00	3.500000e+00	-2.366919e-03	
2666	2.090000e+00	3.500000e+00	-2.370878e-03	
2667	2.100000e+00	3.500000e+00	-2.374817e-03	
2668	2.110000e+00	3.500000e+00	-2.378737e-03	
2669	2.120000e+00	3.500000e+00	-2.382639e-03	
2670	2.130000e+00	3.500000e+00	-2.386523e-03	
2671	2.140000e+00	3.500000e+00	-2.390388e-03	
2672	2.150000e+00	3.500000e+00	-2.394235e-03	
2673	2.160000e+00	3.500000e+00	-2.398063e-03	
2674	2.170000e+00	3.500000e+00	-2.401874e-03	
2675	2.180000e+00	3.500000e+00	-2.405668e-03	
2676	2.190000e+00	3.500000e+00	-2.409443e-03	
2677	2.200000e+00	3.500000e+00	-2.413201e-03	
2678	2.210000e+00	3.500000e+00	-2.416942e-03	
2679	2.220000e+00	3.500000e+00	-2.420665e-03	
2680	2.230000e+00	3.500000e+00	-2.424371e-03	
2681	2.240000e+00	3.500000e+00	-2.428059e-03	
2682	2.250000e+00	3.500000e+00	-2.431731e-03	
2683	2.260000e+00	3.500000e+00	-2.435385e-03	
2684	2.270000e+00	3.500000e+00	-2.439023e-03	
2685	2.280000e+00	3.500000e+00	-2.442644e-03	
2686	2.290000e+00	3.500000e+00	-2.446247e-03	
2687	2.300000e+00	3.500000e+00	-2.449835e-03	
2688	2.310000e+00	3.500000e+00	-2.453405e-03	
2689	2.320000e+00	3.500000e+00	-2.456960e-03	
2690	2.330000e+00	3.500000e+00	-2.460498e-03	
2691	2.340000e+00	3.500000e+00	-2.464019e-03	
2692	2.350000e+00	3.500000e+00	-2.467525e-03	
2693	2.360000e+00	3.500000e+00	-2.471014e-03	
2694	2.370000e+00	3.500000e+00	-2.474488e-03	
2695	2.380000e+00	3.500000e+00	-2.477946e-03	
2696	2.390000e+00	3.500000e+00	-2.481388e-03	
2697	2.400000e+00	3.500000e+00	-2.484815e-03	
2698	2.410000e+00	3.500000e+00	-2.488226e-03	
2699	2.420000e+00	3.500000e+00	-2.491622e-03	
2700	2.430000e+00	3.500000e+00	-2.495003e-03	
2701	2.440000e+00	3.500000e+00	-2.498369e-03	
2702	2.450000e+00	3.500000e+00	-2.501720e-03	
2703	2.460000e+00	3.500000e+00	-2.505056e-03	
2704	2.470000e+00	3.500000e+00	-2.508378e-03	
2705	2.480000e+00	3.500000e+00	-2.511685e-03	
2706	2.490000e+00	3.500000e+00	-2.514977e-03	
2707	2.500000e+00	3.500000e+00	-2.518256e-03	
2708	2.510000e+00	3.500000e+00	-2.521520e-03	
2709	2.520000e+00	3.500000e+00	-2.524771e-03	
2710	2.530000e+00	3.500000e+00	-2.528007e-03	
2711	2.540000e+00	3.500000e+00	-2.531230e-03	
2712	2.550000e+00	3.500000e+00	-2.534439e-03	
2713	2.560000e+00	3.500000e+00	-2.537635e-03	
2714	2.570000e+00	3.500000e+00	-2.540818e-03	
2715	2.580000e+00	3.500000e+00	-2.543987e-03	
2716	2.590000e+00	3.500000e+00	-2.547143e-03	
2717	2.600000e+00	3.500000e+00	-2.550287e-03	
2718	2.610000e+00	3.500000e+00	-2.553417e-03	
2719	2.620000e+00	3.500000e+00	-2.556535e-03	
2720	2.630000e+00	3.500000e+00	-2.559641e-03	
2721	2.640000e+00	3.500000e+00	-2.562734e-03	
2722	2.650000e+00	3.500000e+00	-2.565814e-03	

Index   sweep           v(1)            vds#branch      
--------------------------------------------------------------------------------
2723	2.660000e+00	3.500000e+00	-2.568883e-03	
2724	2.670000e+00	3.500000e+00	-2.571939e-03	
2725	2.680000e+00	3.500000e+00	-2.574984e-03	
2726	2.690000e+00	3.500000e+00	-2.578017e-03	
2727	2.700000e+00	3.500000e+00	-2.581038e-03	
2728	2.710000e+00	3.500000e+00	-2.584047e-03	
2729	2.720000e+00	3.500000e+00	-2.587045e-03	
2730	2.730000e+00	3.500000e+00	-2.590032e-03	
2731	2.740000e+00	3.500000e+00	-2.593008e-03	
2732	2.750000e+00	3.500000e+00	-2.595972e-03	
2733	2.760000e+00	3.500000e+00	-2.598926e-03	
2734	2.770000e+00	3.500000e+00	-2.601868e-03	
2735	2.780000e+00	3.500000e+00	-2.604800e-03	
2736	2.790000e+00	3.500000e+00	-2.607721e-03	
2737	2.800000e+00	3.500000e+00	-2.610632e-03	
2738	2.810000e+00	3.500000e+00	-2.613533e-03	
2739	2.820000e+00	3.500000e+00	-2.616423e-03	
2740	2.830000e+00	3.500000e+00	-2.619302e-03	
2741	2.840000e+00	3.500000e+00	-2.622172e-03	
2742	2.850000e+00	3.500000e+00	-2.625032e-03	
2743	2.860000e+00	3.500000e+00	-2.627882e-03	
2744	2.870000e+00	3.500000e+00	-2.630722e-03	
2745	2.880000e+00	3.500000e+00	-2.633552e-03	
2746	2.890000e+00	3.500000e+00	-2.636373e-03	
2747	2.900000e+00	3.500000e+00	-2.639184e-03	
2748	2.910000e+00	3.500000e+00	-2.641986e-03	
2749	2.920000e+00	3.500000e+00	-2.644779e-03	
2750	2.930000e+00	3.500000e+00	-2.647563e-03	
2751	2.940000e+00	3.500000e+00	-2.650337e-03	
2752	2.950000e+00	3.500000e+00	-2.653102e-03	
2753	2.960000e+00	3.500000e+00	-2.655859e-03	
2754	2.970000e+00	3.500000e+00	-2.658606e-03	
2755	2.980000e+00	3.500000e+00	-2.661345e-03	
2756	2.990000e+00	3.500000e+00	-2.664075e-03	
2757	3.000000e+00	3.500000e+00	-2.666797e-03	
2758	3.010000e+00	3.500000e+00	-2.669510e-03	
2759	3.020000e+00	3.500000e+00	-2.672215e-03	
2760	3.030000e+00	3.500000e+00	-2.674912e-03	
2761	3.040000e+00	3.500000e+00	-2.677600e-03	
2762	3.050000e+00	3.500000e+00	-2.680280e-03	
2763	3.060000e+00	3.500000e+00	-2.682952e-03	
2764	3.070000e+00	3.500000e+00	-2.685617e-03	
2765	3.080000e+00	3.500000e+00	-2.688273e-03	
2766	3.090000e+00	3.500000e+00	-2.690921e-03	
2767	3.100000e+00	3.500000e+00	-2.693562e-03	
2768	3.110000e+00	3.500000e+00	-2.696195e-03	
2769	3.120000e+00	3.500000e+00	-2.698821e-03	
2770	3.130000e+00	3.500000e+00	-2.701439e-03	
2771	3.140000e+00	3.500000e+00	-2.704049e-03	
2772	3.150000e+00	3.500000e+00	-2.706653e-03	
2773	3.160000e+00	3.500000e+00	-2.709249e-03	
2774	3.170000e+00	3.500000e+00	-2.711837e-03	
2775	3.180000e+00	3.500000e+00	-2.714419e-03	
2776	3.190000e+00	3.500000e+00	-2.716994e-03	
2777	3.200000e+00	3.500000e+00	-2.719561e-03	
2778	3.210000e+00	3.500000e+00	-2.722122e-03	
2779	3.220000e+00	3.500000e+00	-2.724676e-03	
2780	3.230000e+00	3.500000e+00	-2.727223e-03	

Index   sweep           v(1)            vds#branch      
--------------------------------------------------------------------------------
2781	3.240000e+00	3.500000e+00	-2.729763e-03	
2782	3.250000e+00	3.500000e+00	-2.732297e-03	
2783	3.260000e+00	3.500000e+00	-2.734824e-03	
2784	3.270000e+00	3.500000e+00	-2.737344e-03	
2785	3.280000e+00	3.500000e+00	-2.739858e-03	
2786	3.290000e+00	3.500000e+00	-2.742366e-03	
2787	3.300000e+00	3.500000e+00	-2.744867e-03	
2788	3.310000e+00	3.500000e+00	-2.747362e-03	
2789	3.320000e+00	3.500000e+00	-2.749851e-03	
2790	3.330000e+00	3.500000e+00	-2.752334e-03	
2791	3.340000e+00	3.500000e+00	-2.754810e-03	
2792	3.350000e+00	3.500000e+00	-2.757281e-03	
2793	3.360000e+00	3.500000e+00	-2.759745e-03	
2794	3.370000e+00	3.500000e+00	-2.762204e-03	
2795	3.380000e+00	3.500000e+00	-2.764657e-03	
2796	3.390000e+00	3.500000e+00	-2.767103e-03	
2797	3.400000e+00	3.500000e+00	-2.769545e-03	
2798	3.410000e+00	3.500000e+00	-2.771980e-03	
2799	3.420000e+00	3.500000e+00	-2.774410e-03	
2800	3.430000e+00	3.500000e+00	-2.776834e-03	
2801	3.440000e+00	3.500000e+00	-2.779252e-03	
2802	3.450000e+00	3.500000e+00	-2.781666e-03	
2803	3.460000e+00	3.500000e+00	-2.784073e-03	
2804	3.470000e+00	3.500000e+00	-2.786476e-03	
2805	3.480000e+00	3.500000e+00	-2.788872e-03	
2806	3.490000e+00	3.500000e+00	-2.791264e-03	
2807	3.500000e+00	3.500000e+00	-2.793651e-03	

CPU time since last call: 0.560 seconds.

Total CPU time: 0.560 seconds.

Current dynamic memory usage = 425984,
Dynamic memory limit = -18809400.

