Note: can't find init file.

Circuit: ***  For BSIM3V3.1  general purpose check (Id-Vg) for Nmosfet***

Warning: Pd = 0 is less than W.
Warning: Ps = 0 is less than W.
Circuit: ***  For BSIM3V3.1  general purpose check (Id-Vg) for Nmosfet***
Date: Thu Jul 28 21:10:04  2005


        ***  For BSIM3V3.1  general purpose check (Id-Vg) for Nmosfet***
        DC transfer characteristic  Thu Jul 28 21:10:04  2005
--------------------------------------------------------------------------------
Index   sweep           v(2)            vds#branch      
--------------------------------------------------------------------------------
0	-3.500000e+00	1.000000e-01	-1.097907e-13	
1	-3.490000e+00	1.000000e-01	-1.097907e-13	
2	-3.480000e+00	1.000000e-01	-1.097907e-13	
3	-3.470000e+00	1.000000e-01	-1.097907e-13	
4	-3.460000e+00	1.000000e-01	-1.097907e-13	
5	-3.450000e+00	1.000000e-01	-1.097907e-13	
6	-3.440000e+00	1.000000e-01	-1.097907e-13	
7	-3.430000e+00	1.000000e-01	-1.097907e-13	
8	-3.420000e+00	1.000000e-01	-1.097907e-13	
9	-3.410000e+00	1.000000e-01	-1.097907e-13	
10	-3.400000e+00	1.000000e-01	-1.097907e-13	
11	-3.390000e+00	1.000000e-01	-1.097907e-13	
12	-3.380000e+00	1.000000e-01	-1.097907e-13	
13	-3.370000e+00	1.000000e-01	-1.097907e-13	
14	-3.360000e+00	1.000000e-01	-1.097907e-13	
15	-3.350000e+00	1.000000e-01	-1.097907e-13	
16	-3.340000e+00	1.000000e-01	-1.097907e-13	
17	-3.330000e+00	1.000000e-01	-1.097907e-13	
18	-3.320000e+00	1.000000e-01	-1.097907e-13	
19	-3.310000e+00	1.000000e-01	-1.097907e-13	
20	-3.300000e+00	1.000000e-01	-1.097907e-13	
21	-3.290000e+00	1.000000e-01	-1.097907e-13	
22	-3.280000e+00	1.000000e-01	-1.097907e-13	
23	-3.270000e+00	1.000000e-01	-1.097907e-13	
24	-3.260000e+00	1.000000e-01	-1.097907e-13	
25	-3.250000e+00	1.000000e-01	-1.097907e-13	
26	-3.240000e+00	1.000000e-01	-1.097907e-13	
27	-3.230000e+00	1.000000e-01	-1.097907e-13	
28	-3.220000e+00	1.000000e-01	-1.097907e-13	
29	-3.210000e+00	1.000000e-01	-1.097907e-13	
30	-3.200000e+00	1.000000e-01	-1.097907e-13	
31	-3.190000e+00	1.000000e-01	-1.097907e-13	
32	-3.180000e+00	1.000000e-01	-1.097907e-13	
33	-3.170000e+00	1.000000e-01	-1.097907e-13	
34	-3.160000e+00	1.000000e-01	-1.097907e-13	
35	-3.150000e+00	1.000000e-01	-1.097907e-13	
36	-3.140000e+00	1.000000e-01	-1.097907e-13	
37	-3.130000e+00	1.000000e-01	-1.097907e-13	
38	-3.120000e+00	1.000000e-01	-1.097907e-13	
39	-3.110000e+00	1.000000e-01	-1.097907e-13	
40	-3.100000e+00	1.000000e-01	-1.097907e-13	
41	-3.090000e+00	1.000000e-01	-1.097907e-13	
42	-3.080000e+00	1.000000e-01	-1.097907e-13	
43	-3.070000e+00	1.000000e-01	-1.097907e-13	
44	-3.060000e+00	1.000000e-01	-1.097907e-13	
45	-3.050000e+00	1.000000e-01	-1.097907e-13	
46	-3.040000e+00	1.000000e-01	-1.097907e-13	
47	-3.030000e+00	1.000000e-01	-1.097907e-13	
48	-3.020000e+00	1.000000e-01	-1.097907e-13	
49	-3.010000e+00	1.000000e-01	-1.097907e-13	
50	-3.000000e+00	1.000000e-01	-1.097907e-13	
51	-2.990000e+00	1.000000e-01	-1.097907e-13	
52	-2.980000e+00	1.000000e-01	-1.097907e-13	
53	-2.970000e+00	1.000000e-01	-1.097907e-13	
54	-2.960000e+00	1.000000e-01	-1.097907e-13	

Index   sweep           v(2)            vds#branch      
--------------------------------------------------------------------------------
55	-2.950000e+00	1.000000e-01	-1.097907e-13	
56	-2.940000e+00	1.000000e-01	-1.097907e-13	
57	-2.930000e+00	1.000000e-01	-1.097907e-13	
58	-2.920000e+00	1.000000e-01	-1.097907e-13	
59	-2.910000e+00	1.000000e-01	-1.097907e-13	
60	-2.900000e+00	1.000000e-01	-1.097907e-13	
61	-2.890000e+00	1.000000e-01	-1.097907e-13	
62	-2.880000e+00	1.000000e-01	-1.097907e-13	
63	-2.870000e+00	1.000000e-01	-1.097907e-13	
64	-2.860000e+00	1.000000e-01	-1.097907e-13	
65	-2.850000e+00	1.000000e-01	-1.097907e-13	
66	-2.840000e+00	1.000000e-01	-1.097907e-13	
67	-2.830000e+00	1.000000e-01	-1.097907e-13	
68	-2.820000e+00	1.000000e-01	-1.097907e-13	
69	-2.810000e+00	1.000000e-01	-1.097907e-13	
70	-2.800000e+00	1.000000e-01	-1.097907e-13	
71	-2.790000e+00	1.000000e-01	-1.097907e-13	
72	-2.780000e+00	1.000000e-01	-1.097907e-13	
73	-2.770000e+00	1.000000e-01	-1.097907e-13	
74	-2.760000e+00	1.000000e-01	-1.097907e-13	
75	-2.750000e+00	1.000000e-01	-1.097907e-13	
76	-2.740000e+00	1.000000e-01	-1.097907e-13	
77	-2.730000e+00	1.000000e-01	-1.097907e-13	
78	-2.720000e+00	1.000000e-01	-1.097907e-13	
79	-2.710000e+00	1.000000e-01	-1.097907e-13	
80	-2.700000e+00	1.000000e-01	-1.097907e-13	
81	-2.690000e+00	1.000000e-01	-1.097907e-13	
82	-2.680000e+00	1.000000e-01	-1.097907e-13	
83	-2.670000e+00	1.000000e-01	-1.097907e-13	
84	-2.660000e+00	1.000000e-01	-1.097907e-13	
85	-2.650000e+00	1.000000e-01	-1.097907e-13	
86	-2.640000e+00	1.000000e-01	-1.097907e-13	
87	-2.630000e+00	1.000000e-01	-1.097907e-13	
88	-2.620000e+00	1.000000e-01	-1.097907e-13	
89	-2.610000e+00	1.000000e-01	-1.097907e-13	
90	-2.600000e+00	1.000000e-01	-1.097907e-13	
91	-2.590000e+00	1.000000e-01	-1.097907e-13	
92	-2.580000e+00	1.000000e-01	-1.097907e-13	
93	-2.570000e+00	1.000000e-01	-1.097907e-13	
94	-2.560000e+00	1.000000e-01	-1.097907e-13	
95	-2.550000e+00	1.000000e-01	-1.097907e-13	
96	-2.540000e+00	1.000000e-01	-1.097907e-13	
97	-2.530000e+00	1.000000e-01	-1.097907e-13	
98	-2.520000e+00	1.000000e-01	-1.097907e-13	
99	-2.510000e+00	1.000000e-01	-1.097907e-13	
100	-2.500000e+00	1.000000e-01	-1.097907e-13	
101	-2.490000e+00	1.000000e-01	-1.097907e-13	
102	-2.480000e+00	1.000000e-01	-1.097907e-13	
103	-2.470000e+00	1.000000e-01	-1.097907e-13	
104	-2.460000e+00	1.000000e-01	-1.097907e-13	
105	-2.450000e+00	1.000000e-01	-1.097907e-13	
106	-2.440000e+00	1.000000e-01	-1.097907e-13	
107	-2.430000e+00	1.000000e-01	-1.097907e-13	
108	-2.420000e+00	1.000000e-01	-1.097907e-13	
109	-2.410000e+00	1.000000e-01	-1.097907e-13	
110	-2.400000e+00	1.000000e-01	-1.097907e-13	
111	-2.390000e+00	1.000000e-01	-1.097907e-13	
112	-2.380000e+00	1.000000e-01	-1.097907e-13	

Index   sweep           v(2)            vds#branch      
--------------------------------------------------------------------------------
113	-2.370000e+00	1.000000e-01	-1.097907e-13	
114	-2.360000e+00	1.000000e-01	-1.097907e-13	
115	-2.350000e+00	1.000000e-01	-1.097907e-13	
116	-2.340000e+00	1.000000e-01	-1.097907e-13	
117	-2.330000e+00	1.000000e-01	-1.097907e-13	
118	-2.320000e+00	1.000000e-01	-1.097907e-13	
119	-2.310000e+00	1.000000e-01	-1.097907e-13	
120	-2.300000e+00	1.000000e-01	-1.097907e-13	
121	-2.290000e+00	1.000000e-01	-1.097907e-13	
122	-2.280000e+00	1.000000e-01	-1.097907e-13	
123	-2.270000e+00	1.000000e-01	-1.097907e-13	
124	-2.260000e+00	1.000000e-01	-1.097907e-13	
125	-2.250000e+00	1.000000e-01	-1.097907e-13	
126	-2.240000e+00	1.000000e-01	-1.097907e-13	
127	-2.230000e+00	1.000000e-01	-1.097907e-13	
128	-2.220000e+00	1.000000e-01	-1.097907e-13	
129	-2.210000e+00	1.000000e-01	-1.097907e-13	
130	-2.200000e+00	1.000000e-01	-1.097907e-13	
131	-2.190000e+00	1.000000e-01	-1.097907e-13	
132	-2.180000e+00	1.000000e-01	-1.097907e-13	
133	-2.170000e+00	1.000000e-01	-1.097907e-13	
134	-2.160000e+00	1.000000e-01	-1.097907e-13	
135	-2.150000e+00	1.000000e-01	-1.097907e-13	
136	-2.140000e+00	1.000000e-01	-1.097907e-13	
137	-2.130000e+00	1.000000e-01	-1.097907e-13	
138	-2.120000e+00	1.000000e-01	-1.097907e-13	
139	-2.110000e+00	1.000000e-01	-1.097907e-13	
140	-2.100000e+00	1.000000e-01	-1.097907e-13	
141	-2.090000e+00	1.000000e-01	-1.097907e-13	
142	-2.080000e+00	1.000000e-01	-1.097907e-13	
143	-2.070000e+00	1.000000e-01	-1.097907e-13	
144	-2.060000e+00	1.000000e-01	-1.097907e-13	
145	-2.050000e+00	1.000000e-01	-1.097907e-13	
146	-2.040000e+00	1.000000e-01	-1.097907e-13	
147	-2.030000e+00	1.000000e-01	-1.097907e-13	
148	-2.020000e+00	1.000000e-01	-1.097907e-13	
149	-2.010000e+00	1.000000e-01	-1.097907e-13	
150	-2.000000e+00	1.000000e-01	-1.097907e-13	
151	-1.990000e+00	1.000000e-01	-1.097907e-13	
152	-1.980000e+00	1.000000e-01	-1.097907e-13	
153	-1.970000e+00	1.000000e-01	-1.097907e-13	
154	-1.960000e+00	1.000000e-01	-1.097907e-13	
155	-1.950000e+00	1.000000e-01	-1.097907e-13	
156	-1.940000e+00	1.000000e-01	-1.097907e-13	
157	-1.930000e+00	1.000000e-01	-1.097907e-13	
158	-1.920000e+00	1.000000e-01	-1.097907e-13	
159	-1.910000e+00	1.000000e-01	-1.097907e-13	
160	-1.900000e+00	1.000000e-01	-1.097907e-13	
161	-1.890000e+00	1.000000e-01	-1.097907e-13	
162	-1.880000e+00	1.000000e-01	-1.097907e-13	
163	-1.870000e+00	1.000000e-01	-1.097907e-13	
164	-1.860000e+00	1.000000e-01	-1.097907e-13	
165	-1.850000e+00	1.000000e-01	-1.097907e-13	
166	-1.840000e+00	1.000000e-01	-1.097907e-13	
167	-1.830000e+00	1.000000e-01	-1.097907e-13	
168	-1.820000e+00	1.000000e-01	-1.097907e-13	
169	-1.810000e+00	1.000000e-01	-1.097907e-13	
170	-1.800000e+00	1.000000e-01	-1.097907e-13	

Index   sweep           v(2)            vds#branch      
--------------------------------------------------------------------------------
171	-1.790000e+00	1.000000e-01	-1.097907e-13	
172	-1.780000e+00	1.000000e-01	-1.097907e-13	
173	-1.770000e+00	1.000000e-01	-1.097907e-13	
174	-1.760000e+00	1.000000e-01	-1.097907e-13	
175	-1.750000e+00	1.000000e-01	-1.097907e-13	
176	-1.740000e+00	1.000000e-01	-1.097907e-13	
177	-1.730000e+00	1.000000e-01	-1.097907e-13	
178	-1.720000e+00	1.000000e-01	-1.097907e-13	
179	-1.710000e+00	1.000000e-01	-1.097907e-13	
180	-1.700000e+00	1.000000e-01	-1.097907e-13	
181	-1.690000e+00	1.000000e-01	-1.097907e-13	
182	-1.680000e+00	1.000000e-01	-1.097907e-13	
183	-1.670000e+00	1.000000e-01	-1.097907e-13	
184	-1.660000e+00	1.000000e-01	-1.097907e-13	
185	-1.650000e+00	1.000000e-01	-1.097907e-13	
186	-1.640000e+00	1.000000e-01	-1.097907e-13	
187	-1.630000e+00	1.000000e-01	-1.097907e-13	
188	-1.620000e+00	1.000000e-01	-1.097907e-13	
189	-1.610000e+00	1.000000e-01	-1.097907e-13	
190	-1.600000e+00	1.000000e-01	-1.097907e-13	
191	-1.590000e+00	1.000000e-01	-1.097907e-13	
192	-1.580000e+00	1.000000e-01	-1.097907e-13	
193	-1.570000e+00	1.000000e-01	-1.097907e-13	
194	-1.560000e+00	1.000000e-01	-1.097907e-13	
195	-1.550000e+00	1.000000e-01	-1.097907e-13	
196	-1.540000e+00	1.000000e-01	-1.097907e-13	
197	-1.530000e+00	1.000000e-01	-1.097907e-13	
198	-1.520000e+00	1.000000e-01	-1.097907e-13	
199	-1.510000e+00	1.000000e-01	-1.097907e-13	
200	-1.500000e+00	1.000000e-01	-1.097907e-13	
201	-1.490000e+00	1.000000e-01	-1.097907e-13	
202	-1.480000e+00	1.000000e-01	-1.097907e-13	
203	-1.470000e+00	1.000000e-01	-1.097907e-13	
204	-1.460000e+00	1.000000e-01	-1.097907e-13	
205	-1.450000e+00	1.000000e-01	-1.097907e-13	
206	-1.440000e+00	1.000000e-01	-1.097907e-13	
207	-1.430000e+00	1.000000e-01	-1.097907e-13	
208	-1.420000e+00	1.000000e-01	-1.097907e-13	
209	-1.410000e+00	1.000000e-01	-1.097907e-13	
210	-1.400000e+00	1.000000e-01	-1.097907e-13	
211	-1.390000e+00	1.000000e-01	-1.097907e-13	
212	-1.380000e+00	1.000000e-01	-1.097907e-13	
213	-1.370000e+00	1.000000e-01	-1.097907e-13	
214	-1.360000e+00	1.000000e-01	-1.097907e-13	
215	-1.350000e+00	1.000000e-01	-1.097907e-13	
216	-1.340000e+00	1.000000e-01	-1.097907e-13	
217	-1.330000e+00	1.000000e-01	-1.097907e-13	
218	-1.320000e+00	1.000000e-01	-1.097907e-13	
219	-1.310000e+00	1.000000e-01	-1.097907e-13	
220	-1.300000e+00	1.000000e-01	-1.097907e-13	
221	-1.290000e+00	1.000000e-01	-1.097907e-13	
222	-1.280000e+00	1.000000e-01	-1.097907e-13	
223	-1.270000e+00	1.000000e-01	-1.097907e-13	
224	-1.260000e+00	1.000000e-01	-1.097907e-13	
225	-1.250000e+00	1.000000e-01	-1.097907e-13	
226	-1.240000e+00	1.000000e-01	-1.097907e-13	
227	-1.230000e+00	1.000000e-01	-1.097907e-13	
228	-1.220000e+00	1.000000e-01	-1.097907e-13	

Index   sweep           v(2)            vds#branch      
--------------------------------------------------------------------------------
229	-1.210000e+00	1.000000e-01	-1.097907e-13	
230	-1.200000e+00	1.000000e-01	-1.097907e-13	
231	-1.190000e+00	1.000000e-01	-1.097907e-13	
232	-1.180000e+00	1.000000e-01	-1.097907e-13	
233	-1.170000e+00	1.000000e-01	-1.097907e-13	
234	-1.160000e+00	1.000000e-01	-1.097907e-13	
235	-1.150000e+00	1.000000e-01	-1.097907e-13	
236	-1.140000e+00	1.000000e-01	-1.097907e-13	
237	-1.130000e+00	1.000000e-01	-1.097907e-13	
238	-1.120000e+00	1.000000e-01	-1.097907e-13	
239	-1.110000e+00	1.000000e-01	-1.097907e-13	
240	-1.100000e+00	1.000000e-01	-1.097907e-13	
241	-1.090000e+00	1.000000e-01	-1.097907e-13	
242	-1.080000e+00	1.000000e-01	-1.097907e-13	
243	-1.070000e+00	1.000000e-01	-1.097907e-13	
244	-1.060000e+00	1.000000e-01	-1.097907e-13	
245	-1.050000e+00	1.000000e-01	-1.097907e-13	
246	-1.040000e+00	1.000000e-01	-1.097907e-13	
247	-1.030000e+00	1.000000e-01	-1.097907e-13	
248	-1.020000e+00	1.000000e-01	-1.097907e-13	
249	-1.010000e+00	1.000000e-01	-1.097907e-13	
250	-1.000000e+00	1.000000e-01	-1.097907e-13	
251	-9.900000e-01	1.000000e-01	-1.097907e-13	
252	-9.800000e-01	1.000000e-01	-1.097907e-13	
253	-9.700000e-01	1.000000e-01	-1.097907e-13	
254	-9.600000e-01	1.000000e-01	-1.097907e-13	
255	-9.500000e-01	1.000000e-01	-1.097907e-13	
256	-9.400000e-01	1.000000e-01	-1.097908e-13	
257	-9.300000e-01	1.000000e-01	-1.097908e-13	
258	-9.200000e-01	1.000000e-01	-1.097908e-13	
259	-9.100000e-01	1.000000e-01	-1.097909e-13	
260	-9.000000e-01	1.000000e-01	-1.097909e-13	
261	-8.900000e-01	1.000000e-01	-1.097910e-13	
262	-8.800000e-01	1.000000e-01	-1.097911e-13	
263	-8.700000e-01	1.000000e-01	-1.097913e-13	
264	-8.600000e-01	1.000000e-01	-1.097915e-13	
265	-8.500000e-01	1.000000e-01	-1.097917e-13	
266	-8.400000e-01	1.000000e-01	-1.097920e-13	
267	-8.300000e-01	1.000000e-01	-1.097925e-13	
268	-8.200000e-01	1.000000e-01	-1.097930e-13	
269	-8.100000e-01	1.000000e-01	-1.097937e-13	
270	-8.000000e-01	1.000000e-01	-1.097946e-13	
271	-7.900000e-01	1.000000e-01	-1.097957e-13	
272	-7.800000e-01	1.000000e-01	-1.097972e-13	
273	-7.700000e-01	1.000000e-01	-1.097991e-13	
274	-7.600000e-01	1.000000e-01	-1.098016e-13	
275	-7.500000e-01	1.000000e-01	-1.098049e-13	
276	-7.400000e-01	1.000000e-01	-1.098091e-13	
277	-7.300000e-01	1.000000e-01	-1.098145e-13	
278	-7.200000e-01	1.000000e-01	-1.098215e-13	
279	-7.100000e-01	1.000000e-01	-1.098306e-13	
280	-7.000000e-01	1.000000e-01	-1.098423e-13	
281	-6.900000e-01	1.000000e-01	-1.098576e-13	
282	-6.800000e-01	1.000000e-01	-1.098773e-13	
283	-6.700000e-01	1.000000e-01	-1.099028e-13	
284	-6.600000e-01	1.000000e-01	-1.099358e-13	
285	-6.500000e-01	1.000000e-01	-1.099785e-13	
286	-6.400000e-01	1.000000e-01	-1.100339e-13	

Index   sweep           v(2)            vds#branch      
--------------------------------------------------------------------------------
287	-6.300000e-01	1.000000e-01	-1.101055e-13	
288	-6.200000e-01	1.000000e-01	-1.101982e-13	
289	-6.100000e-01	1.000000e-01	-1.103182e-13	
290	-6.000000e-01	1.000000e-01	-1.104736e-13	
291	-5.900000e-01	1.000000e-01	-1.106748e-13	
292	-5.800000e-01	1.000000e-01	-1.109352e-13	
293	-5.700000e-01	1.000000e-01	-1.112723e-13	
294	-5.600000e-01	1.000000e-01	-1.117086e-13	
295	-5.500000e-01	1.000000e-01	-1.122735e-13	
296	-5.400000e-01	1.000000e-01	-1.130048e-13	
297	-5.300000e-01	1.000000e-01	-1.139514e-13	
298	-5.200000e-01	1.000000e-01	-1.151768e-13	
299	-5.100000e-01	1.000000e-01	-1.167631e-13	
300	-5.000000e-01	1.000000e-01	-1.188166e-13	
301	-4.900000e-01	1.000000e-01	-1.214749e-13	
302	-4.800000e-01	1.000000e-01	-1.249162e-13	
303	-4.700000e-01	1.000000e-01	-1.293708e-13	
304	-4.600000e-01	1.000000e-01	-1.351374e-13	
305	-4.500000e-01	1.000000e-01	-1.426024e-13	
306	-4.400000e-01	1.000000e-01	-1.522658e-13	
307	-4.300000e-01	1.000000e-01	-1.647750e-13	
308	-4.200000e-01	1.000000e-01	-1.809682e-13	
309	-4.100000e-01	1.000000e-01	-2.019303e-13	
310	-4.000000e-01	1.000000e-01	-2.290655e-13	
311	-3.900000e-01	1.000000e-01	-2.641917e-13	
312	-3.800000e-01	1.000000e-01	-3.096619e-13	
313	-3.700000e-01	1.000000e-01	-3.685220e-13	
314	-3.600000e-01	1.000000e-01	-4.447146e-13	
315	-3.500000e-01	1.000000e-01	-5.433430e-13	
316	-3.400000e-01	1.000000e-01	-6.710130e-13	
317	-3.300000e-01	1.000000e-01	-8.362747e-13	
318	-3.200000e-01	1.000000e-01	-1.050195e-12	
319	-3.100000e-01	1.000000e-01	-1.327098e-12	
320	-3.000000e-01	1.000000e-01	-1.685523e-12	
321	-2.900000e-01	1.000000e-01	-2.149465e-12	
322	-2.800000e-01	1.000000e-01	-2.749979e-12	
323	-2.700000e-01	1.000000e-01	-3.527255e-12	
324	-2.600000e-01	1.000000e-01	-4.533305e-12	
325	-2.500000e-01	1.000000e-01	-5.835437e-12	
326	-2.400000e-01	1.000000e-01	-7.520749e-12	
327	-2.300000e-01	1.000000e-01	-9.701939e-12	
328	-2.200000e-01	1.000000e-01	-1.252483e-11	
329	-2.100000e-01	1.000000e-01	-1.617807e-11	
330	-2.000000e-01	1.000000e-01	-2.090574e-11	
331	-1.900000e-01	1.000000e-01	-2.702354e-11	
332	-1.800000e-01	1.000000e-01	-3.493983e-11	
333	-1.700000e-01	1.000000e-01	-4.518273e-11	
334	-1.600000e-01	1.000000e-01	-5.843517e-11	
335	-1.500000e-01	1.000000e-01	-7.558010e-11	
336	-1.400000e-01	1.000000e-01	-9.775895e-11	
337	-1.300000e-01	1.000000e-01	-1.264470e-10	
338	-1.200000e-01	1.000000e-01	-1.635504e-10	
339	-1.100000e-01	1.000000e-01	-2.115320e-10	
340	-1.000000e-01	1.000000e-01	-2.735723e-10	
341	-9.000000e-02	1.000000e-01	-3.537777e-10	
342	-8.000000e-02	1.000000e-01	-4.574481e-10	
343	-7.000000e-02	1.000000e-01	-5.914211e-10	
344	-6.000000e-02	1.000000e-01	-7.645140e-10	

Index   sweep           v(2)            vds#branch      
--------------------------------------------------------------------------------
345	-5.000000e-02	1.000000e-01	-9.880912e-10	
346	-4.000000e-02	1.000000e-01	-1.276792e-09	
347	-3.000000e-02	1.000000e-01	-1.649460e-09	
348	-2.000000e-02	1.000000e-01	-2.130337e-09	
349	-1.000000e-02	1.000000e-01	-2.750579e-09	
350	-3.033337e-14	1.000000e-01	-3.550196e-09	
351	1.000000e-02	1.000000e-01	-4.580513e-09	
352	2.000000e-02	1.000000e-01	-5.907294e-09	
353	3.000000e-02	1.000000e-01	-7.614702e-09	
354	4.000000e-02	1.000000e-01	-9.810292e-09	
355	5.000000e-02	1.000000e-01	-1.263130e-08	
356	6.000000e-02	1.000000e-01	-1.625256e-08	
357	7.000000e-02	1.000000e-01	-2.089634e-08	
358	8.000000e-02	1.000000e-01	-2.684475e-08	
359	9.000000e-02	1.000000e-01	-3.445499e-08	
360	1.000000e-01	1.000000e-01	-4.417840e-08	
361	1.100000e-01	1.000000e-01	-5.658391e-08	
362	1.200000e-01	1.000000e-01	-7.238690e-08	
363	1.300000e-01	1.000000e-01	-9.248471e-08	
364	1.400000e-01	1.000000e-01	-1.180001e-07	
365	1.500000e-01	1.000000e-01	-1.503345e-07	
366	1.600000e-01	1.000000e-01	-1.912329e-07	
367	1.700000e-01	1.000000e-01	-2.428634e-07	
368	1.800000e-01	1.000000e-01	-3.079138e-07	
369	1.900000e-01	1.000000e-01	-3.897097e-07	
370	2.000000e-01	1.000000e-01	-4.923569e-07	
371	2.100000e-01	1.000000e-01	-6.209128e-07	
372	2.200000e-01	1.000000e-01	-7.815896e-07	
373	2.300000e-01	1.000000e-01	-9.819902e-07	
374	2.400000e-01	1.000000e-01	-1.231372e-06	
375	2.500000e-01	1.000000e-01	-1.540933e-06	
376	2.600000e-01	1.000000e-01	-1.924088e-06	
377	2.700000e-01	1.000000e-01	-2.396724e-06	
378	2.800000e-01	1.000000e-01	-2.977362e-06	
379	2.900000e-01	1.000000e-01	-3.687185e-06	
380	3.000000e-01	1.000000e-01	-4.549861e-06	
381	3.100000e-01	1.000000e-01	-5.591094e-06	
382	3.200000e-01	1.000000e-01	-6.837861e-06	
383	3.300000e-01	1.000000e-01	-8.317314e-06	
384	3.400000e-01	1.000000e-01	-1.005538e-05	
385	3.500000e-01	1.000000e-01	-1.207511e-05	
386	3.600000e-01	1.000000e-01	-1.439502e-05	
387	3.700000e-01	1.000000e-01	-1.702736e-05	
388	3.800000e-01	1.000000e-01	-1.997687e-05	
389	3.900000e-01	1.000000e-01	-2.323989e-05	
390	4.000000e-01	1.000000e-01	-2.680420e-05	
391	4.100000e-01	1.000000e-01	-3.064963e-05	
392	4.200000e-01	1.000000e-01	-3.474932e-05	
393	4.300000e-01	1.000000e-01	-3.907161e-05	
394	4.400000e-01	1.000000e-01	-4.358203e-05	
395	4.500000e-01	1.000000e-01	-4.824537e-05	
396	4.600000e-01	1.000000e-01	-5.302737e-05	
397	4.700000e-01	1.000000e-01	-5.789599e-05	
398	4.800000e-01	1.000000e-01	-6.282224e-05	
399	4.900000e-01	1.000000e-01	-6.778056e-05	
400	5.000000e-01	1.000000e-01	-7.274901e-05	
401	5.100000e-01	1.000000e-01	-7.770907e-05	
402	5.200000e-01	1.000000e-01	-8.264543e-05	

Index   sweep           v(2)            vds#branch      
--------------------------------------------------------------------------------
403	5.300000e-01	1.000000e-01	-8.754571e-05	
404	5.400000e-01	1.000000e-01	-9.240003e-05	
405	5.500000e-01	1.000000e-01	-9.720074e-05	
406	5.600000e-01	1.000000e-01	-1.019420e-04	
407	5.700000e-01	1.000000e-01	-1.066197e-04	
408	5.800000e-01	1.000000e-01	-1.112308e-04	
409	5.900000e-01	1.000000e-01	-1.157735e-04	
410	6.000000e-01	1.000000e-01	-1.202466e-04	
411	6.100000e-01	1.000000e-01	-1.246500e-04	
412	6.200000e-01	1.000000e-01	-1.289837e-04	
413	6.300000e-01	1.000000e-01	-1.332484e-04	
414	6.400000e-01	1.000000e-01	-1.374450e-04	
415	6.500000e-01	1.000000e-01	-1.415746e-04	
416	6.600000e-01	1.000000e-01	-1.456385e-04	
417	6.700000e-01	1.000000e-01	-1.496383e-04	
418	6.800000e-01	1.000000e-01	-1.535752e-04	
419	6.900000e-01	1.000000e-01	-1.574510e-04	
420	7.000000e-01	1.000000e-01	-1.612671e-04	
421	7.100000e-01	1.000000e-01	-1.650251e-04	
422	7.200000e-01	1.000000e-01	-1.687264e-04	
423	7.300000e-01	1.000000e-01	-1.723725e-04	
424	7.400000e-01	1.000000e-01	-1.759650e-04	
425	7.500000e-01	1.000000e-01	-1.795051e-04	
426	7.600000e-01	1.000000e-01	-1.829942e-04	
427	7.700000e-01	1.000000e-01	-1.864337e-04	
428	7.800000e-01	1.000000e-01	-1.898246e-04	
429	7.900000e-01	1.000000e-01	-1.931682e-04	
430	8.000000e-01	1.000000e-01	-1.964658e-04	
431	8.100000e-01	1.000000e-01	-1.997182e-04	
432	8.200000e-01	1.000000e-01	-2.029266e-04	
433	8.300000e-01	1.000000e-01	-2.060920e-04	
434	8.400000e-01	1.000000e-01	-2.092153e-04	
435	8.500000e-01	1.000000e-01	-2.122974e-04	
436	8.600000e-01	1.000000e-01	-2.153393e-04	
437	8.700000e-01	1.000000e-01	-2.183417e-04	
438	8.800000e-01	1.000000e-01	-2.213054e-04	
439	8.900000e-01	1.000000e-01	-2.242314e-04	
440	9.000000e-01	1.000000e-01	-2.271202e-04	
441	9.100000e-01	1.000000e-01	-2.299726e-04	
442	9.200000e-01	1.000000e-01	-2.327893e-04	
443	9.300000e-01	1.000000e-01	-2.355709e-04	
444	9.400000e-01	1.000000e-01	-2.383182e-04	
445	9.500000e-01	1.000000e-01	-2.410318e-04	
446	9.600000e-01	1.000000e-01	-2.437121e-04	
447	9.700000e-01	1.000000e-01	-2.463599e-04	
448	9.800000e-01	1.000000e-01	-2.489758e-04	
449	9.900000e-01	1.000000e-01	-2.515601e-04	
450	1.000000e+00	1.000000e-01	-2.541136e-04	
451	1.010000e+00	1.000000e-01	-2.566367e-04	
452	1.020000e+00	1.000000e-01	-2.591299e-04	
453	1.030000e+00	1.000000e-01	-2.615937e-04	
454	1.040000e+00	1.000000e-01	-2.640286e-04	
455	1.050000e+00	1.000000e-01	-2.664351e-04	
456	1.060000e+00	1.000000e-01	-2.688136e-04	
457	1.070000e+00	1.000000e-01	-2.711646e-04	
458	1.080000e+00	1.000000e-01	-2.734885e-04	
459	1.090000e+00	1.000000e-01	-2.757857e-04	
460	1.100000e+00	1.000000e-01	-2.780567e-04	

Index   sweep           v(2)            vds#branch      
--------------------------------------------------------------------------------
461	1.110000e+00	1.000000e-01	-2.803018e-04	
462	1.120000e+00	1.000000e-01	-2.825215e-04	
463	1.130000e+00	1.000000e-01	-2.847161e-04	
464	1.140000e+00	1.000000e-01	-2.868861e-04	
465	1.150000e+00	1.000000e-01	-2.890317e-04	
466	1.160000e+00	1.000000e-01	-2.911534e-04	
467	1.170000e+00	1.000000e-01	-2.932515e-04	
468	1.180000e+00	1.000000e-01	-2.953264e-04	
469	1.190000e+00	1.000000e-01	-2.973784e-04	
470	1.200000e+00	1.000000e-01	-2.994079e-04	
471	1.210000e+00	1.000000e-01	-3.014151e-04	
472	1.220000e+00	1.000000e-01	-3.034005e-04	
473	1.230000e+00	1.000000e-01	-3.053643e-04	
474	1.240000e+00	1.000000e-01	-3.073068e-04	
475	1.250000e+00	1.000000e-01	-3.092283e-04	
476	1.260000e+00	1.000000e-01	-3.111292e-04	
477	1.270000e+00	1.000000e-01	-3.130097e-04	
478	1.280000e+00	1.000000e-01	-3.148701e-04	
479	1.290000e+00	1.000000e-01	-3.167107e-04	
480	1.300000e+00	1.000000e-01	-3.185318e-04	
481	1.310000e+00	1.000000e-01	-3.203337e-04	
482	1.320000e+00	1.000000e-01	-3.221166e-04	
483	1.330000e+00	1.000000e-01	-3.238807e-04	
484	1.340000e+00	1.000000e-01	-3.256264e-04	
485	1.350000e+00	1.000000e-01	-3.273539e-04	
486	1.360000e+00	1.000000e-01	-3.290635e-04	
487	1.370000e+00	1.000000e-01	-3.307553e-04	
488	1.380000e+00	1.000000e-01	-3.324297e-04	
489	1.390000e+00	1.000000e-01	-3.340868e-04	
490	1.400000e+00	1.000000e-01	-3.357269e-04	
491	1.410000e+00	1.000000e-01	-3.373502e-04	
492	1.420000e+00	1.000000e-01	-3.389570e-04	
493	1.430000e+00	1.000000e-01	-3.405475e-04	
494	1.440000e+00	1.000000e-01	-3.421218e-04	
495	1.450000e+00	1.000000e-01	-3.436802e-04	
496	1.460000e+00	1.000000e-01	-3.452230e-04	
497	1.470000e+00	1.000000e-01	-3.467502e-04	
498	1.480000e+00	1.000000e-01	-3.482622e-04	
499	1.490000e+00	1.000000e-01	-3.497591e-04	
500	1.500000e+00	1.000000e-01	-3.512411e-04	
501	1.510000e+00	1.000000e-01	-3.527083e-04	
502	1.520000e+00	1.000000e-01	-3.541611e-04	
503	1.530000e+00	1.000000e-01	-3.555995e-04	
504	1.540000e+00	1.000000e-01	-3.570238e-04	
505	1.550000e+00	1.000000e-01	-3.584342e-04	
506	1.560000e+00	1.000000e-01	-3.598307e-04	
507	1.570000e+00	1.000000e-01	-3.612136e-04	
508	1.580000e+00	1.000000e-01	-3.625831e-04	
509	1.590000e+00	1.000000e-01	-3.639393e-04	
510	1.600000e+00	1.000000e-01	-3.652823e-04	
511	1.610000e+00	1.000000e-01	-3.666125e-04	
512	1.620000e+00	1.000000e-01	-3.679298e-04	
513	1.630000e+00	1.000000e-01	-3.692345e-04	
514	1.640000e+00	1.000000e-01	-3.705268e-04	
515	1.650000e+00	1.000000e-01	-3.718067e-04	
516	1.660000e+00	1.000000e-01	-3.730744e-04	
517	1.670000e+00	1.000000e-01	-3.743301e-04	
518	1.680000e+00	1.000000e-01	-3.755739e-04	

Index   sweep           v(2)            vds#branch      
--------------------------------------------------------------------------------
519	1.690000e+00	1.000000e-01	-3.768060e-04	
520	1.700000e+00	1.000000e-01	-3.780265e-04	
521	1.710000e+00	1.000000e-01	-3.792355e-04	
522	1.720000e+00	1.000000e-01	-3.804332e-04	
523	1.730000e+00	1.000000e-01	-3.816197e-04	
524	1.740000e+00	1.000000e-01	-3.827951e-04	
525	1.750000e+00	1.000000e-01	-3.839596e-04	
526	1.760000e+00	1.000000e-01	-3.851134e-04	
527	1.770000e+00	1.000000e-01	-3.862564e-04	
528	1.780000e+00	1.000000e-01	-3.873889e-04	
529	1.790000e+00	1.000000e-01	-3.885110e-04	
530	1.800000e+00	1.000000e-01	-3.896227e-04	
531	1.810000e+00	1.000000e-01	-3.907243e-04	
532	1.820000e+00	1.000000e-01	-3.918158e-04	
533	1.830000e+00	1.000000e-01	-3.928974e-04	
534	1.840000e+00	1.000000e-01	-3.939691e-04	
535	1.850000e+00	1.000000e-01	-3.950311e-04	
536	1.860000e+00	1.000000e-01	-3.960835e-04	
537	1.870000e+00	1.000000e-01	-3.971263e-04	
538	1.880000e+00	1.000000e-01	-3.981598e-04	
539	1.890000e+00	1.000000e-01	-3.991840e-04	
540	1.900000e+00	1.000000e-01	-4.001989e-04	
541	1.910000e+00	1.000000e-01	-4.012048e-04	
542	1.920000e+00	1.000000e-01	-4.022017e-04	
543	1.930000e+00	1.000000e-01	-4.031897e-04	
544	1.940000e+00	1.000000e-01	-4.041689e-04	
545	1.950000e+00	1.000000e-01	-4.051394e-04	
546	1.960000e+00	1.000000e-01	-4.061013e-04	
547	1.970000e+00	1.000000e-01	-4.070547e-04	
548	1.980000e+00	1.000000e-01	-4.079997e-04	
549	1.990000e+00	1.000000e-01	-4.089363e-04	
550	2.000000e+00	1.000000e-01	-4.098647e-04	
551	2.010000e+00	1.000000e-01	-4.107850e-04	
552	2.020000e+00	1.000000e-01	-4.116972e-04	
553	2.030000e+00	1.000000e-01	-4.126015e-04	
554	2.040000e+00	1.000000e-01	-4.134979e-04	
555	2.050000e+00	1.000000e-01	-4.143864e-04	
556	2.060000e+00	1.000000e-01	-4.152673e-04	
557	2.070000e+00	1.000000e-01	-4.161405e-04	
558	2.080000e+00	1.000000e-01	-4.170061e-04	
559	2.090000e+00	1.000000e-01	-4.178643e-04	
560	2.100000e+00	1.000000e-01	-4.187151e-04	
561	2.110000e+00	1.000000e-01	-4.195585e-04	
562	2.120000e+00	1.000000e-01	-4.203947e-04	
563	2.130000e+00	1.000000e-01	-4.212237e-04	
564	2.140000e+00	1.000000e-01	-4.220457e-04	
565	2.150000e+00	1.000000e-01	-4.228606e-04	
566	2.160000e+00	1.000000e-01	-4.236685e-04	
567	2.170000e+00	1.000000e-01	-4.244696e-04	
568	2.180000e+00	1.000000e-01	-4.252639e-04	
569	2.190000e+00	1.000000e-01	-4.260514e-04	
570	2.200000e+00	1.000000e-01	-4.268323e-04	
571	2.210000e+00	1.000000e-01	-4.276065e-04	
572	2.220000e+00	1.000000e-01	-4.283742e-04	
573	2.230000e+00	1.000000e-01	-4.291354e-04	
574	2.240000e+00	1.000000e-01	-4.298903e-04	
575	2.250000e+00	1.000000e-01	-4.306388e-04	
576	2.260000e+00	1.000000e-01	-4.313810e-04	

Index   sweep           v(2)            vds#branch      
--------------------------------------------------------------------------------
577	2.270000e+00	1.000000e-01	-4.321169e-04	
578	2.280000e+00	1.000000e-01	-4.328468e-04	
579	2.290000e+00	1.000000e-01	-4.335705e-04	
580	2.300000e+00	1.000000e-01	-4.342882e-04	
581	2.310000e+00	1.000000e-01	-4.349999e-04	
582	2.320000e+00	1.000000e-01	-4.357057e-04	
583	2.330000e+00	1.000000e-01	-4.364056e-04	
584	2.340000e+00	1.000000e-01	-4.370997e-04	
585	2.350000e+00	1.000000e-01	-4.377881e-04	
586	2.360000e+00	1.000000e-01	-4.384708e-04	
587	2.370000e+00	1.000000e-01	-4.391479e-04	
588	2.380000e+00	1.000000e-01	-4.398193e-04	
589	2.390000e+00	1.000000e-01	-4.404853e-04	
590	2.400000e+00	1.000000e-01	-4.411458e-04	
591	2.410000e+00	1.000000e-01	-4.418008e-04	
592	2.420000e+00	1.000000e-01	-4.424505e-04	
593	2.430000e+00	1.000000e-01	-4.430948e-04	
594	2.440000e+00	1.000000e-01	-4.437339e-04	
595	2.450000e+00	1.000000e-01	-4.443677e-04	
596	2.460000e+00	1.000000e-01	-4.449964e-04	
597	2.470000e+00	1.000000e-01	-4.456200e-04	
598	2.480000e+00	1.000000e-01	-4.462384e-04	
599	2.490000e+00	1.000000e-01	-4.468519e-04	
600	2.500000e+00	1.000000e-01	-4.474604e-04	
601	2.510000e+00	1.000000e-01	-4.480639e-04	
602	2.520000e+00	1.000000e-01	-4.486625e-04	
603	2.530000e+00	1.000000e-01	-4.492563e-04	
604	2.540000e+00	1.000000e-01	-4.498453e-04	
605	2.550000e+00	1.000000e-01	-4.504296e-04	
606	2.560000e+00	1.000000e-01	-4.510091e-04	
607	2.570000e+00	1.000000e-01	-4.515839e-04	
608	2.580000e+00	1.000000e-01	-4.521542e-04	
609	2.590000e+00	1.000000e-01	-4.527198e-04	
610	2.600000e+00	1.000000e-01	-4.532809e-04	
611	2.610000e+00	1.000000e-01	-4.538375e-04	
612	2.620000e+00	1.000000e-01	-4.543896e-04	
613	2.630000e+00	1.000000e-01	-4.549373e-04	
614	2.640000e+00	1.000000e-01	-4.554807e-04	
615	2.650000e+00	1.000000e-01	-4.560196e-04	
616	2.660000e+00	1.000000e-01	-4.565543e-04	
617	2.670000e+00	1.000000e-01	-4.570847e-04	
618	2.680000e+00	1.000000e-01	-4.576109e-04	
619	2.690000e+00	1.000000e-01	-4.581329e-04	
620	2.700000e+00	1.000000e-01	-4.586507e-04	
621	2.710000e+00	1.000000e-01	-4.591644e-04	
622	2.720000e+00	1.000000e-01	-4.596740e-04	
623	2.730000e+00	1.000000e-01	-4.601796e-04	
624	2.740000e+00	1.000000e-01	-4.606812e-04	
625	2.750000e+00	1.000000e-01	-4.611788e-04	
626	2.760000e+00	1.000000e-01	-4.616724e-04	
627	2.770000e+00	1.000000e-01	-4.621622e-04	
628	2.780000e+00	1.000000e-01	-4.626481e-04	
629	2.790000e+00	1.000000e-01	-4.631301e-04	
630	2.800000e+00	1.000000e-01	-4.636083e-04	
631	2.810000e+00	1.000000e-01	-4.640828e-04	
632	2.820000e+00	1.000000e-01	-4.645535e-04	
633	2.830000e+00	1.000000e-01	-4.650205e-04	
634	2.840000e+00	1.000000e-01	-4.654838e-04	

Index   sweep           v(2)            vds#branch      
--------------------------------------------------------------------------------
635	2.850000e+00	1.000000e-01	-4.659434e-04	
636	2.860000e+00	1.000000e-01	-4.663995e-04	
637	2.870000e+00	1.000000e-01	-4.668519e-04	
638	2.880000e+00	1.000000e-01	-4.673008e-04	
639	2.890000e+00	1.000000e-01	-4.677462e-04	
640	2.900000e+00	1.000000e-01	-4.681881e-04	
641	2.910000e+00	1.000000e-01	-4.686265e-04	
642	2.920000e+00	1.000000e-01	-4.690615e-04	
643	2.930000e+00	1.000000e-01	-4.694931e-04	
644	2.940000e+00	1.000000e-01	-4.699212e-04	
645	2.950000e+00	1.000000e-01	-4.703461e-04	
646	2.960000e+00	1.000000e-01	-4.707676e-04	
647	2.970000e+00	1.000000e-01	-4.711858e-04	
648	2.980000e+00	1.000000e-01	-4.716007e-04	
649	2.990000e+00	1.000000e-01	-4.720124e-04	
650	3.000000e+00	1.000000e-01	-4.724209e-04	
651	3.010000e+00	1.000000e-01	-4.728261e-04	
652	3.020000e+00	1.000000e-01	-4.732283e-04	
653	3.030000e+00	1.000000e-01	-4.736272e-04	
654	3.040000e+00	1.000000e-01	-4.740231e-04	
655	3.050000e+00	1.000000e-01	-4.744158e-04	
656	3.060000e+00	1.000000e-01	-4.748055e-04	
657	3.070000e+00	1.000000e-01	-4.751922e-04	
658	3.080000e+00	1.000000e-01	-4.755759e-04	
659	3.090000e+00	1.000000e-01	-4.759565e-04	
660	3.100000e+00	1.000000e-01	-4.763342e-04	
661	3.110000e+00	1.000000e-01	-4.767089e-04	
662	3.120000e+00	1.000000e-01	-4.770808e-04	
663	3.130000e+00	1.000000e-01	-4.774497e-04	
664	3.140000e+00	1.000000e-01	-4.778157e-04	
665	3.150000e+00	1.000000e-01	-4.781789e-04	
666	3.160000e+00	1.000000e-01	-4.785393e-04	
667	3.170000e+00	1.000000e-01	-4.788969e-04	
668	3.180000e+00	1.000000e-01	-4.792517e-04	
669	3.190000e+00	1.000000e-01	-4.796037e-04	
670	3.200000e+00	1.000000e-01	-4.799530e-04	
671	3.210000e+00	1.000000e-01	-4.802995e-04	
672	3.220000e+00	1.000000e-01	-4.806434e-04	
673	3.230000e+00	1.000000e-01	-4.809846e-04	
674	3.240000e+00	1.000000e-01	-4.813231e-04	
675	3.250000e+00	1.000000e-01	-4.816590e-04	
676	3.260000e+00	1.000000e-01	-4.819923e-04	
677	3.270000e+00	1.000000e-01	-4.823229e-04	
678	3.280000e+00	1.000000e-01	-4.826510e-04	
679	3.290000e+00	1.000000e-01	-4.829766e-04	
680	3.300000e+00	1.000000e-01	-4.832996e-04	
681	3.310000e+00	1.000000e-01	-4.836201e-04	
682	3.320000e+00	1.000000e-01	-4.839381e-04	
683	3.330000e+00	1.000000e-01	-4.842536e-04	
684	3.340000e+00	1.000000e-01	-4.845667e-04	
685	3.350000e+00	1.000000e-01	-4.848773e-04	
686	3.360000e+00	1.000000e-01	-4.851855e-04	
687	3.370000e+00	1.000000e-01	-4.854913e-04	
688	3.380000e+00	1.000000e-01	-4.857947e-04	
689	3.390000e+00	1.000000e-01	-4.860957e-04	
690	3.400000e+00	1.000000e-01	-4.863944e-04	
691	3.410000e+00	1.000000e-01	-4.866907e-04	
692	3.420000e+00	1.000000e-01	-4.869847e-04	

Index   sweep           v(2)            vds#branch      
--------------------------------------------------------------------------------
693	3.430000e+00	1.000000e-01	-4.872765e-04	
694	3.440000e+00	1.000000e-01	-4.875659e-04	
695	3.450000e+00	1.000000e-01	-4.878531e-04	
696	3.460000e+00	1.000000e-01	-4.881381e-04	
697	3.470000e+00	1.000000e-01	-4.884208e-04	
698	3.480000e+00	1.000000e-01	-4.887013e-04	
699	3.490000e+00	1.000000e-01	-4.889795e-04	
700	3.500000e+00	1.000000e-01	-4.892557e-04	
701	-3.500000e+00	1.100000e+00	-1.110000e-12	
702	-3.490000e+00	1.100000e+00	-1.110000e-12	
703	-3.480000e+00	1.100000e+00	-1.110000e-12	
704	-3.470000e+00	1.100000e+00	-1.110000e-12	
705	-3.460000e+00	1.100000e+00	-1.110000e-12	
706	-3.450000e+00	1.100000e+00	-1.110000e-12	
707	-3.440000e+00	1.100000e+00	-1.110000e-12	
708	-3.430000e+00	1.100000e+00	-1.110000e-12	
709	-3.420000e+00	1.100000e+00	-1.110000e-12	
710	-3.410000e+00	1.100000e+00	-1.110000e-12	
711	-3.400000e+00	1.100000e+00	-1.110000e-12	
712	-3.390000e+00	1.100000e+00	-1.110000e-12	
713	-3.380000e+00	1.100000e+00	-1.110000e-12	
714	-3.370000e+00	1.100000e+00	-1.110000e-12	
715	-3.360000e+00	1.100000e+00	-1.110000e-12	
716	-3.350000e+00	1.100000e+00	-1.110000e-12	
717	-3.340000e+00	1.100000e+00	-1.110000e-12	
718	-3.330000e+00	1.100000e+00	-1.110000e-12	
719	-3.320000e+00	1.100000e+00	-1.110000e-12	
720	-3.310000e+00	1.100000e+00	-1.110000e-12	
721	-3.300000e+00	1.100000e+00	-1.110000e-12	
722	-3.290000e+00	1.100000e+00	-1.110000e-12	
723	-3.280000e+00	1.100000e+00	-1.110000e-12	
724	-3.270000e+00	1.100000e+00	-1.110000e-12	
725	-3.260000e+00	1.100000e+00	-1.110000e-12	
726	-3.250000e+00	1.100000e+00	-1.110000e-12	
727	-3.240000e+00	1.100000e+00	-1.110000e-12	
728	-3.230000e+00	1.100000e+00	-1.110000e-12	
729	-3.220000e+00	1.100000e+00	-1.110000e-12	
730	-3.210000e+00	1.100000e+00	-1.110000e-12	
731	-3.200000e+00	1.100000e+00	-1.110000e-12	
732	-3.190000e+00	1.100000e+00	-1.110000e-12	
733	-3.180000e+00	1.100000e+00	-1.110000e-12	
734	-3.170000e+00	1.100000e+00	-1.110000e-12	
735	-3.160000e+00	1.100000e+00	-1.110000e-12	
736	-3.150000e+00	1.100000e+00	-1.110000e-12	
737	-3.140000e+00	1.100000e+00	-1.110000e-12	
738	-3.130000e+00	1.100000e+00	-1.110000e-12	
739	-3.120000e+00	1.100000e+00	-1.110000e-12	
740	-3.110000e+00	1.100000e+00	-1.110000e-12	
741	-3.100000e+00	1.100000e+00	-1.110000e-12	
742	-3.090000e+00	1.100000e+00	-1.110000e-12	
743	-3.080000e+00	1.100000e+00	-1.110000e-12	
744	-3.070000e+00	1.100000e+00	-1.110000e-12	
745	-3.060000e+00	1.100000e+00	-1.110000e-12	
746	-3.050000e+00	1.100000e+00	-1.110000e-12	
747	-3.040000e+00	1.100000e+00	-1.110000e-12	
748	-3.030000e+00	1.100000e+00	-1.110000e-12	
749	-3.020000e+00	1.100000e+00	-1.110000e-12	
750	-3.010000e+00	1.100000e+00	-1.110000e-12	

Index   sweep           v(2)            vds#branch      
--------------------------------------------------------------------------------
751	-3.000000e+00	1.100000e+00	-1.110000e-12	
752	-2.990000e+00	1.100000e+00	-1.110000e-12	
753	-2.980000e+00	1.100000e+00	-1.110000e-12	
754	-2.970000e+00	1.100000e+00	-1.110000e-12	
755	-2.960000e+00	1.100000e+00	-1.110000e-12	
756	-2.950000e+00	1.100000e+00	-1.110000e-12	
757	-2.940000e+00	1.100000e+00	-1.110000e-12	
758	-2.930000e+00	1.100000e+00	-1.110000e-12	
759	-2.920000e+00	1.100000e+00	-1.110000e-12	
760	-2.910000e+00	1.100000e+00	-1.110000e-12	
761	-2.900000e+00	1.100000e+00	-1.110000e-12	
762	-2.890000e+00	1.100000e+00	-1.110000e-12	
763	-2.880000e+00	1.100000e+00	-1.110000e-12	
764	-2.870000e+00	1.100000e+00	-1.110000e-12	
765	-2.860000e+00	1.100000e+00	-1.110000e-12	
766	-2.850000e+00	1.100000e+00	-1.110000e-12	
767	-2.840000e+00	1.100000e+00	-1.110000e-12	
768	-2.830000e+00	1.100000e+00	-1.110000e-12	
769	-2.820000e+00	1.100000e+00	-1.110000e-12	
770	-2.810000e+00	1.100000e+00	-1.110000e-12	
771	-2.800000e+00	1.100000e+00	-1.110000e-12	
772	-2.790000e+00	1.100000e+00	-1.110000e-12	
773	-2.780000e+00	1.100000e+00	-1.110000e-12	
774	-2.770000e+00	1.100000e+00	-1.110000e-12	
775	-2.760000e+00	1.100000e+00	-1.110000e-12	
776	-2.750000e+00	1.100000e+00	-1.110000e-12	
777	-2.740000e+00	1.100000e+00	-1.110000e-12	
778	-2.730000e+00	1.100000e+00	-1.110000e-12	
779	-2.720000e+00	1.100000e+00	-1.110000e-12	
780	-2.710000e+00	1.100000e+00	-1.110000e-12	
781	-2.700000e+00	1.100000e+00	-1.110000e-12	
782	-2.690000e+00	1.100000e+00	-1.110000e-12	
783	-2.680000e+00	1.100000e+00	-1.110000e-12	
784	-2.670000e+00	1.100000e+00	-1.110000e-12	
785	-2.660000e+00	1.100000e+00	-1.110000e-12	
786	-2.650000e+00	1.100000e+00	-1.110000e-12	
787	-2.640000e+00	1.100000e+00	-1.110000e-12	
788	-2.630000e+00	1.100000e+00	-1.110000e-12	
789	-2.620000e+00	1.100000e+00	-1.110000e-12	
790	-2.610000e+00	1.100000e+00	-1.110000e-12	
791	-2.600000e+00	1.100000e+00	-1.110000e-12	
792	-2.590000e+00	1.100000e+00	-1.110000e-12	
793	-2.580000e+00	1.100000e+00	-1.110000e-12	
794	-2.570000e+00	1.100000e+00	-1.110000e-12	
795	-2.560000e+00	1.100000e+00	-1.110000e-12	
796	-2.550000e+00	1.100000e+00	-1.110000e-12	
797	-2.540000e+00	1.100000e+00	-1.110000e-12	
798	-2.530000e+00	1.100000e+00	-1.110000e-12	
799	-2.520000e+00	1.100000e+00	-1.110000e-12	
800	-2.510000e+00	1.100000e+00	-1.110000e-12	
801	-2.500000e+00	1.100000e+00	-1.110000e-12	
802	-2.490000e+00	1.100000e+00	-1.110000e-12	
803	-2.480000e+00	1.100000e+00	-1.110000e-12	
804	-2.470000e+00	1.100000e+00	-1.110000e-12	
805	-2.460000e+00	1.100000e+00	-1.110000e-12	
806	-2.450000e+00	1.100000e+00	-1.110000e-12	
807	-2.440000e+00	1.100000e+00	-1.110000e-12	
808	-2.430000e+00	1.100000e+00	-1.110000e-12	

Index   sweep           v(2)            vds#branch      
--------------------------------------------------------------------------------
809	-2.420000e+00	1.100000e+00	-1.110000e-12	
810	-2.410000e+00	1.100000e+00	-1.110000e-12	
811	-2.400000e+00	1.100000e+00	-1.110000e-12	
812	-2.390000e+00	1.100000e+00	-1.110000e-12	
813	-2.380000e+00	1.100000e+00	-1.110000e-12	
814	-2.370000e+00	1.100000e+00	-1.110000e-12	
815	-2.360000e+00	1.100000e+00	-1.110000e-12	
816	-2.350000e+00	1.100000e+00	-1.110000e-12	
817	-2.340000e+00	1.100000e+00	-1.110000e-12	
818	-2.330000e+00	1.100000e+00	-1.110000e-12	
819	-2.320000e+00	1.100000e+00	-1.110000e-12	
820	-2.310000e+00	1.100000e+00	-1.110000e-12	
821	-2.300000e+00	1.100000e+00	-1.110000e-12	
822	-2.290000e+00	1.100000e+00	-1.110000e-12	
823	-2.280000e+00	1.100000e+00	-1.110000e-12	
824	-2.270000e+00	1.100000e+00	-1.110000e-12	
825	-2.260000e+00	1.100000e+00	-1.110000e-12	
826	-2.250000e+00	1.100000e+00	-1.110000e-12	
827	-2.240000e+00	1.100000e+00	-1.110000e-12	
828	-2.230000e+00	1.100000e+00	-1.110000e-12	
829	-2.220000e+00	1.100000e+00	-1.110000e-12	
830	-2.210000e+00	1.100000e+00	-1.110000e-12	
831	-2.200000e+00	1.100000e+00	-1.110000e-12	
832	-2.190000e+00	1.100000e+00	-1.110000e-12	
833	-2.180000e+00	1.100000e+00	-1.110000e-12	
834	-2.170000e+00	1.100000e+00	-1.110000e-12	
835	-2.160000e+00	1.100000e+00	-1.110000e-12	
836	-2.150000e+00	1.100000e+00	-1.110000e-12	
837	-2.140000e+00	1.100000e+00	-1.110000e-12	
838	-2.130000e+00	1.100000e+00	-1.110000e-12	
839	-2.120000e+00	1.100000e+00	-1.110000e-12	
840	-2.110000e+00	1.100000e+00	-1.110000e-12	
841	-2.100000e+00	1.100000e+00	-1.110000e-12	
842	-2.090000e+00	1.100000e+00	-1.110000e-12	
843	-2.080000e+00	1.100000e+00	-1.110000e-12	
844	-2.070000e+00	1.100000e+00	-1.110000e-12	
845	-2.060000e+00	1.100000e+00	-1.110000e-12	
846	-2.050000e+00	1.100000e+00	-1.110000e-12	
847	-2.040000e+00	1.100000e+00	-1.110000e-12	
848	-2.030000e+00	1.100000e+00	-1.110000e-12	
849	-2.020000e+00	1.100000e+00	-1.110000e-12	
850	-2.010000e+00	1.100000e+00	-1.110000e-12	
851	-2.000000e+00	1.100000e+00	-1.110000e-12	
852	-1.990000e+00	1.100000e+00	-1.110000e-12	
853	-1.980000e+00	1.100000e+00	-1.110000e-12	
854	-1.970000e+00	1.100000e+00	-1.110000e-12	
855	-1.960000e+00	1.100000e+00	-1.110000e-12	
856	-1.950000e+00	1.100000e+00	-1.110000e-12	
857	-1.940000e+00	1.100000e+00	-1.110000e-12	
858	-1.930000e+00	1.100000e+00	-1.110000e-12	
859	-1.920000e+00	1.100000e+00	-1.110000e-12	
860	-1.910000e+00	1.100000e+00	-1.110000e-12	
861	-1.900000e+00	1.100000e+00	-1.110000e-12	
862	-1.890000e+00	1.100000e+00	-1.110000e-12	
863	-1.880000e+00	1.100000e+00	-1.110000e-12	
864	-1.870000e+00	1.100000e+00	-1.110000e-12	
865	-1.860000e+00	1.100000e+00	-1.110000e-12	
866	-1.850000e+00	1.100000e+00	-1.110000e-12	

Index   sweep           v(2)            vds#branch      
--------------------------------------------------------------------------------
867	-1.840000e+00	1.100000e+00	-1.110000e-12	
868	-1.830000e+00	1.100000e+00	-1.110000e-12	
869	-1.820000e+00	1.100000e+00	-1.110000e-12	
870	-1.810000e+00	1.100000e+00	-1.110000e-12	
871	-1.800000e+00	1.100000e+00	-1.110000e-12	
872	-1.790000e+00	1.100000e+00	-1.110000e-12	
873	-1.780000e+00	1.100000e+00	-1.110000e-12	
874	-1.770000e+00	1.100000e+00	-1.110000e-12	
875	-1.760000e+00	1.100000e+00	-1.110000e-12	
876	-1.750000e+00	1.100000e+00	-1.110000e-12	
877	-1.740000e+00	1.100000e+00	-1.110000e-12	
878	-1.730000e+00	1.100000e+00	-1.110000e-12	
879	-1.720000e+00	1.100000e+00	-1.110000e-12	
880	-1.710000e+00	1.100000e+00	-1.110000e-12	
881	-1.700000e+00	1.100000e+00	-1.110000e-12	
882	-1.690000e+00	1.100000e+00	-1.110000e-12	
883	-1.680000e+00	1.100000e+00	-1.110000e-12	
884	-1.670000e+00	1.100000e+00	-1.110000e-12	
885	-1.660000e+00	1.100000e+00	-1.110000e-12	
886	-1.650000e+00	1.100000e+00	-1.110000e-12	
887	-1.640000e+00	1.100000e+00	-1.110000e-12	
888	-1.630000e+00	1.100000e+00	-1.110000e-12	
889	-1.620000e+00	1.100000e+00	-1.110000e-12	
890	-1.610000e+00	1.100000e+00	-1.110000e-12	
891	-1.600000e+00	1.100000e+00	-1.110000e-12	
892	-1.590000e+00	1.100000e+00	-1.110000e-12	
893	-1.580000e+00	1.100000e+00	-1.110000e-12	
894	-1.570000e+00	1.100000e+00	-1.110000e-12	
895	-1.560000e+00	1.100000e+00	-1.110000e-12	
896	-1.550000e+00	1.100000e+00	-1.110000e-12	
897	-1.540000e+00	1.100000e+00	-1.110000e-12	
898	-1.530000e+00	1.100000e+00	-1.110000e-12	
899	-1.520000e+00	1.100000e+00	-1.110000e-12	
900	-1.510000e+00	1.100000e+00	-1.110000e-12	
901	-1.500000e+00	1.100000e+00	-1.110000e-12	
902	-1.490000e+00	1.100000e+00	-1.110000e-12	
903	-1.480000e+00	1.100000e+00	-1.110000e-12	
904	-1.470000e+00	1.100000e+00	-1.110000e-12	
905	-1.460000e+00	1.100000e+00	-1.110000e-12	
906	-1.450000e+00	1.100000e+00	-1.110000e-12	
907	-1.440000e+00	1.100000e+00	-1.110000e-12	
908	-1.430000e+00	1.100000e+00	-1.110000e-12	
909	-1.420000e+00	1.100000e+00	-1.110000e-12	
910	-1.410000e+00	1.100000e+00	-1.110000e-12	
911	-1.400000e+00	1.100000e+00	-1.110000e-12	
912	-1.390000e+00	1.100000e+00	-1.110000e-12	
913	-1.380000e+00	1.100000e+00	-1.110000e-12	
914	-1.370000e+00	1.100000e+00	-1.110000e-12	
915	-1.360000e+00	1.100000e+00	-1.110000e-12	
916	-1.350000e+00	1.100000e+00	-1.110000e-12	
917	-1.340000e+00	1.100000e+00	-1.110000e-12	
918	-1.330000e+00	1.100000e+00	-1.110000e-12	
919	-1.320000e+00	1.100000e+00	-1.110000e-12	
920	-1.310000e+00	1.100000e+00	-1.110000e-12	
921	-1.300000e+00	1.100000e+00	-1.110000e-12	
922	-1.290000e+00	1.100000e+00	-1.110000e-12	
923	-1.280000e+00	1.100000e+00	-1.110000e-12	
924	-1.270000e+00	1.100000e+00	-1.110000e-12	

Index   sweep           v(2)            vds#branch      
--------------------------------------------------------------------------------
925	-1.260000e+00	1.100000e+00	-1.110000e-12	
926	-1.250000e+00	1.100000e+00	-1.110000e-12	
927	-1.240000e+00	1.100000e+00	-1.110000e-12	
928	-1.230000e+00	1.100000e+00	-1.110000e-12	
929	-1.220000e+00	1.100000e+00	-1.110000e-12	
930	-1.210000e+00	1.100000e+00	-1.110000e-12	
931	-1.200000e+00	1.100000e+00	-1.110000e-12	
932	-1.190000e+00	1.100000e+00	-1.110000e-12	
933	-1.180000e+00	1.100000e+00	-1.110000e-12	
934	-1.170000e+00	1.100000e+00	-1.110000e-12	
935	-1.160000e+00	1.100000e+00	-1.110000e-12	
936	-1.150000e+00	1.100000e+00	-1.110000e-12	
937	-1.140000e+00	1.100000e+00	-1.110000e-12	
938	-1.130000e+00	1.100000e+00	-1.110000e-12	
939	-1.120000e+00	1.100000e+00	-1.110000e-12	
940	-1.110000e+00	1.100000e+00	-1.110000e-12	
941	-1.100000e+00	1.100000e+00	-1.110000e-12	
942	-1.090000e+00	1.100000e+00	-1.110000e-12	
943	-1.080000e+00	1.100000e+00	-1.110000e-12	
944	-1.070000e+00	1.100000e+00	-1.110000e-12	
945	-1.060000e+00	1.100000e+00	-1.110000e-12	
946	-1.050000e+00	1.100000e+00	-1.110000e-12	
947	-1.040000e+00	1.100000e+00	-1.110000e-12	
948	-1.030000e+00	1.100000e+00	-1.110000e-12	
949	-1.020000e+00	1.100000e+00	-1.110000e-12	
950	-1.010000e+00	1.100000e+00	-1.110000e-12	
951	-1.000000e+00	1.100000e+00	-1.110000e-12	
952	-9.900000e-01	1.100000e+00	-1.110000e-12	
953	-9.800000e-01	1.100000e+00	-1.110000e-12	
954	-9.700000e-01	1.100000e+00	-1.110000e-12	
955	-9.600000e-01	1.100000e+00	-1.110000e-12	
956	-9.500000e-01	1.100000e+00	-1.110000e-12	
957	-9.400000e-01	1.100000e+00	-1.110000e-12	
958	-9.300000e-01	1.100000e+00	-1.110000e-12	
959	-9.200000e-01	1.100000e+00	-1.110000e-12	
960	-9.100000e-01	1.100000e+00	-1.110000e-12	
961	-9.000000e-01	1.100000e+00	-1.110001e-12	
962	-8.900000e-01	1.100000e+00	-1.110001e-12	
963	-8.800000e-01	1.100000e+00	-1.110001e-12	
964	-8.700000e-01	1.100000e+00	-1.110001e-12	
965	-8.600000e-01	1.100000e+00	-1.110002e-12	
966	-8.500000e-01	1.100000e+00	-1.110002e-12	
967	-8.400000e-01	1.100000e+00	-1.110003e-12	
968	-8.300000e-01	1.100000e+00	-1.110004e-12	
969	-8.200000e-01	1.100000e+00	-1.110005e-12	
970	-8.100000e-01	1.100000e+00	-1.110007e-12	
971	-8.000000e-01	1.100000e+00	-1.110009e-12	
972	-7.900000e-01	1.100000e+00	-1.110011e-12	
973	-7.800000e-01	1.100000e+00	-1.110014e-12	
974	-7.700000e-01	1.100000e+00	-1.110019e-12	
975	-7.600000e-01	1.100000e+00	-1.110024e-12	
976	-7.500000e-01	1.100000e+00	-1.110031e-12	
977	-7.400000e-01	1.100000e+00	-1.110040e-12	
978	-7.300000e-01	1.100000e+00	-1.110052e-12	
979	-7.200000e-01	1.100000e+00	-1.110067e-12	
980	-7.100000e-01	1.100000e+00	-1.110087e-12	
981	-7.000000e-01	1.100000e+00	-1.110113e-12	
982	-6.900000e-01	1.100000e+00	-1.110146e-12	

Index   sweep           v(2)            vds#branch      
--------------------------------------------------------------------------------
983	-6.800000e-01	1.100000e+00	-1.110189e-12	
984	-6.700000e-01	1.100000e+00	-1.110245e-12	
985	-6.600000e-01	1.100000e+00	-1.110317e-12	
986	-6.500000e-01	1.100000e+00	-1.110410e-12	
987	-6.400000e-01	1.100000e+00	-1.110531e-12	
988	-6.300000e-01	1.100000e+00	-1.110688e-12	
989	-6.200000e-01	1.100000e+00	-1.110890e-12	
990	-6.100000e-01	1.100000e+00	-1.111153e-12	
991	-6.000000e-01	1.100000e+00	-1.111492e-12	
992	-5.900000e-01	1.100000e+00	-1.111932e-12	
993	-5.800000e-01	1.100000e+00	-1.112501e-12	
994	-5.700000e-01	1.100000e+00	-1.113237e-12	
995	-5.600000e-01	1.100000e+00	-1.114190e-12	
996	-5.500000e-01	1.100000e+00	-1.115425e-12	
997	-5.400000e-01	1.100000e+00	-1.117022e-12	
998	-5.300000e-01	1.100000e+00	-1.119090e-12	
999	-5.200000e-01	1.100000e+00	-1.121768e-12	
1000	-5.100000e-01	1.100000e+00	-1.125233e-12	
1001	-5.000000e-01	1.100000e+00	-1.129720e-12	
1002	-4.900000e-01	1.100000e+00	-1.135528e-12	
1003	-4.800000e-01	1.100000e+00	-1.143046e-12	
1004	-4.700000e-01	1.100000e+00	-1.152779e-12	
1005	-4.600000e-01	1.100000e+00	-1.165377e-12	
1006	-4.500000e-01	1.100000e+00	-1.181686e-12	
1007	-4.400000e-01	1.100000e+00	-1.202799e-12	
1008	-4.300000e-01	1.100000e+00	-1.230128e-12	
1009	-4.200000e-01	1.100000e+00	-1.265506e-12	
1010	-4.100000e-01	1.100000e+00	-1.311303e-12	
1011	-4.000000e-01	1.100000e+00	-1.370586e-12	
1012	-3.900000e-01	1.100000e+00	-1.447327e-12	
1013	-3.800000e-01	1.100000e+00	-1.546665e-12	
1014	-3.700000e-01	1.100000e+00	-1.675256e-12	
1015	-3.600000e-01	1.100000e+00	-1.841712e-12	
1016	-3.500000e-01	1.100000e+00	-2.057180e-12	
1017	-3.400000e-01	1.100000e+00	-2.336091e-12	
1018	-3.300000e-01	1.100000e+00	-2.697122e-12	
1019	-3.200000e-01	1.100000e+00	-3.164445e-12	
1020	-3.100000e-01	1.100000e+00	-3.769350e-12	
1021	-3.000000e-01	1.100000e+00	-4.552328e-12	
1022	-2.900000e-01	1.100000e+00	-5.565788e-12	
1023	-2.800000e-01	1.100000e+00	-6.877554e-12	
1024	-2.700000e-01	1.100000e+00	-8.575396e-12	
1025	-2.600000e-01	1.100000e+00	-1.077290e-11	
1026	-2.500000e-01	1.100000e+00	-1.361703e-11	
1027	-2.400000e-01	1.100000e+00	-1.729797e-11	
1028	-2.300000e-01	1.100000e+00	-2.206176e-11	
1029	-2.200000e-01	1.100000e+00	-2.822675e-11	
1030	-2.100000e-01	1.100000e+00	-3.620474e-11	
1031	-2.000000e-01	1.100000e+00	-4.652839e-11	
1032	-1.900000e-01	1.100000e+00	-5.988669e-11	
1033	-1.800000e-01	1.100000e+00	-7.717059e-11	
1034	-1.700000e-01	1.100000e+00	-9.953218e-11	
1035	-1.600000e-01	1.100000e+00	-1.284609e-10	
1036	-1.500000e-01	1.100000e+00	-1.658821e-10	
1037	-1.400000e-01	1.100000e+00	-2.142839e-10	
1038	-1.300000e-01	1.100000e+00	-2.768813e-10	
1039	-1.200000e-01	1.100000e+00	-3.578270e-10	
1040	-1.100000e-01	1.100000e+00	-4.624838e-10	

Index   sweep           v(2)            vds#branch      
--------------------------------------------------------------------------------
1041	-1.000000e-01	1.100000e+00	-5.977747e-10	
1042	-9.000000e-02	1.100000e+00	-7.726332e-10	
1043	-8.000000e-02	1.100000e+00	-9.985830e-10	
1044	-7.000000e-02	1.100000e+00	-1.290481e-09	
1045	-6.000000e-02	1.100000e+00	-1.667473e-09	
1046	-5.000000e-02	1.100000e+00	-2.154212e-09	
1047	-4.000000e-02	1.100000e+00	-2.782428e-09	
1048	-3.000000e-02	1.100000e+00	-3.592923e-09	
1049	-2.000000e-02	1.100000e+00	-4.638118e-09	
1050	-1.000000e-02	1.100000e+00	-5.985303e-09	
1051	-3.033337e-14	1.100000e+00	-7.720754e-09	
1052	1.000000e-02	1.100000e+00	-9.954963e-09	
1053	2.000000e-02	1.100000e+00	-1.282924e-08	
1054	3.000000e-02	1.100000e+00	-1.652405e-08	
1055	4.000000e-02	1.100000e+00	-2.126947e-08	
1056	5.000000e-02	1.100000e+00	-2.735833e-08	
1057	6.000000e-02	1.100000e+00	-3.516256e-08	
1058	7.000000e-02	1.100000e+00	-4.515361e-08	
1059	8.000000e-02	1.100000e+00	-5.792766e-08	
1060	9.000000e-02	1.100000e+00	-7.423685e-08	
1061	1.000000e-01	1.100000e+00	-9.502762e-08	
1062	1.100000e-01	1.100000e+00	-1.214877e-07	
1063	1.200000e-01	1.100000e+00	-1.551037e-07	
1064	1.300000e-01	1.100000e+00	-1.977307e-07	
1065	1.400000e-01	1.100000e+00	-2.516778e-07	
1066	1.500000e-01	1.100000e+00	-3.198110e-07	
1067	1.600000e-01	1.100000e+00	-4.056777e-07	
1068	1.700000e-01	1.100000e+00	-5.136585e-07	
1069	1.800000e-01	1.100000e+00	-6.491479e-07	
1070	1.900000e-01	1.100000e+00	-8.187730e-07	
1071	2.000000e-01	1.100000e+00	-1.030652e-06	
1072	2.100000e-01	1.100000e+00	-1.294699e-06	
1073	2.200000e-01	1.100000e+00	-1.622970e-06	
1074	2.300000e-01	1.100000e+00	-2.030053e-06	
1075	2.400000e-01	1.100000e+00	-2.533477e-06	
1076	2.500000e-01	1.100000e+00	-3.154123e-06	
1077	2.600000e-01	1.100000e+00	-3.916583e-06	
1078	2.700000e-01	1.100000e+00	-4.849415e-06	
1079	2.800000e-01	1.100000e+00	-5.985227e-06	
1080	2.900000e-01	1.100000e+00	-7.360501e-06	
1081	3.000000e-01	1.100000e+00	-9.015106e-06	
1082	3.100000e-01	1.100000e+00	-1.099145e-05	
1083	3.200000e-01	1.100000e+00	-1.333326e-05	
1084	3.300000e-01	1.100000e+00	-1.608406e-05	
1085	3.400000e-01	1.100000e+00	-1.928546e-05	
1086	3.500000e-01	1.100000e+00	-2.297530e-05	
1087	3.600000e-01	1.100000e+00	-2.718597e-05	
1088	3.700000e-01	1.100000e+00	-3.194299e-05	
1089	3.800000e-01	1.100000e+00	-3.726393e-05	
1090	3.900000e-01	1.100000e+00	-4.315787e-05	
1091	4.000000e-01	1.100000e+00	-4.962536e-05	
1092	4.100000e-01	1.100000e+00	-5.665880e-05	
1093	4.200000e-01	1.100000e+00	-6.424333e-05	
1094	4.300000e-01	1.100000e+00	-7.235790e-05	
1095	4.400000e-01	1.100000e+00	-8.097654e-05	
1096	4.500000e-01	1.100000e+00	-9.006971e-05	
1097	4.600000e-01	1.100000e+00	-9.960557e-05	
1098	4.700000e-01	1.100000e+00	-1.095512e-04	

Index   sweep           v(2)            vds#branch      
--------------------------------------------------------------------------------
1099	4.800000e-01	1.100000e+00	-1.198734e-04	
1100	4.900000e-01	1.100000e+00	-1.305399e-04	
1101	5.000000e-01	1.100000e+00	-1.415197e-04	
1102	5.100000e-01	1.100000e+00	-1.527835e-04	
1103	5.200000e-01	1.100000e+00	-1.643042e-04	
1104	5.300000e-01	1.100000e+00	-1.760569e-04	
1105	5.400000e-01	1.100000e+00	-1.880190e-04	
1106	5.500000e-01	1.100000e+00	-2.001702e-04	
1107	5.600000e-01	1.100000e+00	-2.124924e-04	
1108	5.700000e-01	1.100000e+00	-2.249695e-04	
1109	5.800000e-01	1.100000e+00	-2.375874e-04	
1110	5.900000e-01	1.100000e+00	-2.503336e-04	
1111	6.000000e-01	1.100000e+00	-2.631972e-04	
1112	6.100000e-01	1.100000e+00	-2.761686e-04	
1113	6.200000e-01	1.100000e+00	-2.892396e-04	
1114	6.300000e-01	1.100000e+00	-3.024029e-04	
1115	6.400000e-01	1.100000e+00	-3.156520e-04	
1116	6.500000e-01	1.100000e+00	-3.289814e-04	
1117	6.600000e-01	1.100000e+00	-3.423863e-04	
1118	6.700000e-01	1.100000e+00	-3.558623e-04	
1119	6.800000e-01	1.100000e+00	-3.694054e-04	
1120	6.900000e-01	1.100000e+00	-3.830124e-04	
1121	7.000000e-01	1.100000e+00	-3.966800e-04	
1122	7.100000e-01	1.100000e+00	-4.104056e-04	
1123	7.200000e-01	1.100000e+00	-4.241865e-04	
1124	7.300000e-01	1.100000e+00	-4.380203e-04	
1125	7.400000e-01	1.100000e+00	-4.519049e-04	
1126	7.500000e-01	1.100000e+00	-4.658382e-04	
1127	7.600000e-01	1.100000e+00	-4.798183e-04	
1128	7.700000e-01	1.100000e+00	-4.938433e-04	
1129	7.800000e-01	1.100000e+00	-5.079115e-04	
1130	7.900000e-01	1.100000e+00	-5.220212e-04	
1131	8.000000e-01	1.100000e+00	-5.361707e-04	
1132	8.100000e-01	1.100000e+00	-5.503585e-04	
1133	8.200000e-01	1.100000e+00	-5.645831e-04	
1134	8.300000e-01	1.100000e+00	-5.788429e-04	
1135	8.400000e-01	1.100000e+00	-5.931366e-04	
1136	8.500000e-01	1.100000e+00	-6.074626e-04	
1137	8.600000e-01	1.100000e+00	-6.218195e-04	
1138	8.700000e-01	1.100000e+00	-6.362061e-04	
1139	8.800000e-01	1.100000e+00	-6.506209e-04	
1140	8.900000e-01	1.100000e+00	-6.650626e-04	
1141	9.000000e-01	1.100000e+00	-6.795300e-04	
1142	9.100000e-01	1.100000e+00	-6.940217e-04	
1143	9.200000e-01	1.100000e+00	-7.085366e-04	
1144	9.300000e-01	1.100000e+00	-7.230733e-04	
1145	9.400000e-01	1.100000e+00	-7.376307e-04	
1146	9.500000e-01	1.100000e+00	-7.522076e-04	
1147	9.600000e-01	1.100000e+00	-7.668028e-04	
1148	9.700000e-01	1.100000e+00	-7.814152e-04	
1149	9.800000e-01	1.100000e+00	-7.960438e-04	
1150	9.900000e-01	1.100000e+00	-8.106873e-04	
1151	1.000000e+00	1.100000e+00	-8.253447e-04	
1152	1.010000e+00	1.100000e+00	-8.400150e-04	
1153	1.020000e+00	1.100000e+00	-8.546972e-04	
1154	1.030000e+00	1.100000e+00	-8.693902e-04	
1155	1.040000e+00	1.100000e+00	-8.840930e-04	
1156	1.050000e+00	1.100000e+00	-8.988048e-04	

Index   sweep           v(2)            vds#branch      
--------------------------------------------------------------------------------
1157	1.060000e+00	1.100000e+00	-9.135245e-04	
1158	1.070000e+00	1.100000e+00	-9.282512e-04	
1159	1.080000e+00	1.100000e+00	-9.429841e-04	
1160	1.090000e+00	1.100000e+00	-9.577222e-04	
1161	1.100000e+00	1.100000e+00	-9.724646e-04	
1162	1.110000e+00	1.100000e+00	-9.872106e-04	
1163	1.120000e+00	1.100000e+00	-1.001959e-03	
1164	1.130000e+00	1.100000e+00	-1.016710e-03	
1165	1.140000e+00	1.100000e+00	-1.031462e-03	
1166	1.150000e+00	1.100000e+00	-1.046214e-03	
1167	1.160000e+00	1.100000e+00	-1.060965e-03	
1168	1.170000e+00	1.100000e+00	-1.075716e-03	
1169	1.180000e+00	1.100000e+00	-1.090464e-03	
1170	1.190000e+00	1.100000e+00	-1.105210e-03	
1171	1.200000e+00	1.100000e+00	-1.119953e-03	
1172	1.210000e+00	1.100000e+00	-1.134692e-03	
1173	1.220000e+00	1.100000e+00	-1.149426e-03	
1174	1.230000e+00	1.100000e+00	-1.164154e-03	
1175	1.240000e+00	1.100000e+00	-1.178877e-03	
1176	1.250000e+00	1.100000e+00	-1.193593e-03	
1177	1.260000e+00	1.100000e+00	-1.208302e-03	
1178	1.270000e+00	1.100000e+00	-1.223003e-03	
1179	1.280000e+00	1.100000e+00	-1.237696e-03	
1180	1.290000e+00	1.100000e+00	-1.252380e-03	
1181	1.300000e+00	1.100000e+00	-1.267054e-03	
1182	1.310000e+00	1.100000e+00	-1.281718e-03	
1183	1.320000e+00	1.100000e+00	-1.296372e-03	
1184	1.330000e+00	1.100000e+00	-1.311014e-03	
1185	1.340000e+00	1.100000e+00	-1.325644e-03	
1186	1.350000e+00	1.100000e+00	-1.340262e-03	
1187	1.360000e+00	1.100000e+00	-1.354868e-03	
1188	1.370000e+00	1.100000e+00	-1.369460e-03	
1189	1.380000e+00	1.100000e+00	-1.384038e-03	
1190	1.390000e+00	1.100000e+00	-1.398602e-03	
1191	1.400000e+00	1.100000e+00	-1.413151e-03	
1192	1.410000e+00	1.100000e+00	-1.427685e-03	
1193	1.420000e+00	1.100000e+00	-1.442204e-03	
1194	1.430000e+00	1.100000e+00	-1.456706e-03	
1195	1.440000e+00	1.100000e+00	-1.471191e-03	
1196	1.450000e+00	1.100000e+00	-1.485659e-03	
1197	1.460000e+00	1.100000e+00	-1.500110e-03	
1198	1.470000e+00	1.100000e+00	-1.514543e-03	
1199	1.480000e+00	1.100000e+00	-1.528957e-03	
1200	1.490000e+00	1.100000e+00	-1.543352e-03	
1201	1.500000e+00	1.100000e+00	-1.557728e-03	
1202	1.510000e+00	1.100000e+00	-1.572085e-03	
1203	1.520000e+00	1.100000e+00	-1.586421e-03	
1204	1.530000e+00	1.100000e+00	-1.600737e-03	
1205	1.540000e+00	1.100000e+00	-1.615031e-03	
1206	1.550000e+00	1.100000e+00	-1.629305e-03	
1207	1.560000e+00	1.100000e+00	-1.643556e-03	
1208	1.570000e+00	1.100000e+00	-1.657786e-03	
1209	1.580000e+00	1.100000e+00	-1.671993e-03	
1210	1.590000e+00	1.100000e+00	-1.686177e-03	
1211	1.600000e+00	1.100000e+00	-1.700337e-03	
1212	1.610000e+00	1.100000e+00	-1.714474e-03	
1213	1.620000e+00	1.100000e+00	-1.728587e-03	
1214	1.630000e+00	1.100000e+00	-1.742675e-03	

Index   sweep           v(2)            vds#branch      
--------------------------------------------------------------------------------
1215	1.640000e+00	1.100000e+00	-1.756739e-03	
1216	1.650000e+00	1.100000e+00	-1.770777e-03	
1217	1.660000e+00	1.100000e+00	-1.784789e-03	
1218	1.670000e+00	1.100000e+00	-1.798776e-03	
1219	1.680000e+00	1.100000e+00	-1.812736e-03	
1220	1.690000e+00	1.100000e+00	-1.826670e-03	
1221	1.700000e+00	1.100000e+00	-1.840576e-03	
1222	1.710000e+00	1.100000e+00	-1.854455e-03	
1223	1.720000e+00	1.100000e+00	-1.868307e-03	
1224	1.730000e+00	1.100000e+00	-1.882130e-03	
1225	1.740000e+00	1.100000e+00	-1.895925e-03	
1226	1.750000e+00	1.100000e+00	-1.909691e-03	
1227	1.760000e+00	1.100000e+00	-1.923427e-03	
1228	1.770000e+00	1.100000e+00	-1.937134e-03	
1229	1.780000e+00	1.100000e+00	-1.950812e-03	
1230	1.790000e+00	1.100000e+00	-1.964459e-03	
1231	1.800000e+00	1.100000e+00	-1.978075e-03	
1232	1.810000e+00	1.100000e+00	-1.991661e-03	
1233	1.820000e+00	1.100000e+00	-2.005215e-03	
1234	1.830000e+00	1.100000e+00	-2.018737e-03	
1235	1.840000e+00	1.100000e+00	-2.032228e-03	
1236	1.850000e+00	1.100000e+00	-2.045687e-03	
1237	1.860000e+00	1.100000e+00	-2.059112e-03	
1238	1.870000e+00	1.100000e+00	-2.072505e-03	
1239	1.880000e+00	1.100000e+00	-2.085865e-03	
1240	1.890000e+00	1.100000e+00	-2.099191e-03	
1241	1.900000e+00	1.100000e+00	-2.112483e-03	
1242	1.910000e+00	1.100000e+00	-2.125741e-03	
1243	1.920000e+00	1.100000e+00	-2.138964e-03	
1244	1.930000e+00	1.100000e+00	-2.152152e-03	
1245	1.940000e+00	1.100000e+00	-2.165305e-03	
1246	1.950000e+00	1.100000e+00	-2.178423e-03	
1247	1.960000e+00	1.100000e+00	-2.191505e-03	
1248	1.970000e+00	1.100000e+00	-2.204550e-03	
1249	1.980000e+00	1.100000e+00	-2.217559e-03	
1250	1.990000e+00	1.100000e+00	-2.230531e-03	
1251	2.000000e+00	1.100000e+00	-2.243466e-03	
1252	2.010000e+00	1.100000e+00	-2.256363e-03	
1253	2.020000e+00	1.100000e+00	-2.269223e-03	
1254	2.030000e+00	1.100000e+00	-2.282044e-03	
1255	2.040000e+00	1.100000e+00	-2.294828e-03	
1256	2.050000e+00	1.100000e+00	-2.307572e-03	
1257	2.060000e+00	1.100000e+00	-2.320277e-03	
1258	2.070000e+00	1.100000e+00	-2.332944e-03	
1259	2.080000e+00	1.100000e+00	-2.345570e-03	
1260	2.090000e+00	1.100000e+00	-2.358157e-03	
1261	2.100000e+00	1.100000e+00	-2.370703e-03	
1262	2.110000e+00	1.100000e+00	-2.383209e-03	
1263	2.120000e+00	1.100000e+00	-2.395674e-03	
1264	2.130000e+00	1.100000e+00	-2.408098e-03	
1265	2.140000e+00	1.100000e+00	-2.420481e-03	
1266	2.150000e+00	1.100000e+00	-2.432822e-03	
1267	2.160000e+00	1.100000e+00	-2.445121e-03	
1268	2.170000e+00	1.100000e+00	-2.457378e-03	
1269	2.180000e+00	1.100000e+00	-2.469593e-03	
1270	2.190000e+00	1.100000e+00	-2.481765e-03	
1271	2.200000e+00	1.100000e+00	-2.493893e-03	
1272	2.210000e+00	1.100000e+00	-2.505979e-03	

Index   sweep           v(2)            vds#branch      
--------------------------------------------------------------------------------
1273	2.220000e+00	1.100000e+00	-2.518021e-03	
1274	2.230000e+00	1.100000e+00	-2.530019e-03	
1275	2.240000e+00	1.100000e+00	-2.541973e-03	
1276	2.250000e+00	1.100000e+00	-2.553883e-03	
1277	2.260000e+00	1.100000e+00	-2.565749e-03	
1278	2.270000e+00	1.100000e+00	-2.577569e-03	
1279	2.280000e+00	1.100000e+00	-2.589345e-03	
1280	2.290000e+00	1.100000e+00	-2.601076e-03	
1281	2.300000e+00	1.100000e+00	-2.612761e-03	
1282	2.310000e+00	1.100000e+00	-2.624400e-03	
1283	2.320000e+00	1.100000e+00	-2.635994e-03	
1284	2.330000e+00	1.100000e+00	-2.647541e-03	
1285	2.340000e+00	1.100000e+00	-2.659042e-03	
1286	2.350000e+00	1.100000e+00	-2.670497e-03	
1287	2.360000e+00	1.100000e+00	-2.681905e-03	
1288	2.370000e+00	1.100000e+00	-2.693266e-03	
1289	2.380000e+00	1.100000e+00	-2.704580e-03	
1290	2.390000e+00	1.100000e+00	-2.715846e-03	
1291	2.400000e+00	1.100000e+00	-2.727066e-03	
1292	2.410000e+00	1.100000e+00	-2.738237e-03	
1293	2.420000e+00	1.100000e+00	-2.749361e-03	
1294	2.430000e+00	1.100000e+00	-2.760437e-03	
1295	2.440000e+00	1.100000e+00	-2.771465e-03	
1296	2.450000e+00	1.100000e+00	-2.782445e-03	
1297	2.460000e+00	1.100000e+00	-2.793376e-03	
1298	2.470000e+00	1.100000e+00	-2.804259e-03	
1299	2.480000e+00	1.100000e+00	-2.815093e-03	
1300	2.490000e+00	1.100000e+00	-2.825879e-03	
1301	2.500000e+00	1.100000e+00	-2.836615e-03	
1302	2.510000e+00	1.100000e+00	-2.847303e-03	
1303	2.520000e+00	1.100000e+00	-2.857941e-03	
1304	2.530000e+00	1.100000e+00	-2.868531e-03	
1305	2.540000e+00	1.100000e+00	-2.879071e-03	
1306	2.550000e+00	1.100000e+00	-2.889562e-03	
1307	2.560000e+00	1.100000e+00	-2.900003e-03	
1308	2.570000e+00	1.100000e+00	-2.910395e-03	
1309	2.580000e+00	1.100000e+00	-2.920737e-03	
1310	2.590000e+00	1.100000e+00	-2.931030e-03	
1311	2.600000e+00	1.100000e+00	-2.941273e-03	
1312	2.610000e+00	1.100000e+00	-2.951466e-03	
1313	2.620000e+00	1.100000e+00	-2.961610e-03	
1314	2.630000e+00	1.100000e+00	-2.971703e-03	
1315	2.640000e+00	1.100000e+00	-2.981748e-03	
1316	2.650000e+00	1.100000e+00	-2.991742e-03	
1317	2.660000e+00	1.100000e+00	-3.001687e-03	
1318	2.670000e+00	1.100000e+00	-3.011582e-03	
1319	2.680000e+00	1.100000e+00	-3.021427e-03	
1320	2.690000e+00	1.100000e+00	-3.031223e-03	
1321	2.700000e+00	1.100000e+00	-3.040969e-03	
1322	2.710000e+00	1.100000e+00	-3.050665e-03	
1323	2.720000e+00	1.100000e+00	-3.060312e-03	
1324	2.730000e+00	1.100000e+00	-3.069910e-03	
1325	2.740000e+00	1.100000e+00	-3.079459e-03	
1326	2.750000e+00	1.100000e+00	-3.088958e-03	
1327	2.760000e+00	1.100000e+00	-3.098408e-03	
1328	2.770000e+00	1.100000e+00	-3.107809e-03	
1329	2.780000e+00	1.100000e+00	-3.117162e-03	
1330	2.790000e+00	1.100000e+00	-3.126466e-03	

Index   sweep           v(2)            vds#branch      
--------------------------------------------------------------------------------
1331	2.800000e+00	1.100000e+00	-3.135721e-03	
1332	2.810000e+00	1.100000e+00	-3.144928e-03	
1333	2.820000e+00	1.100000e+00	-3.154087e-03	
1334	2.830000e+00	1.100000e+00	-3.163197e-03	
1335	2.840000e+00	1.100000e+00	-3.172260e-03	
1336	2.850000e+00	1.100000e+00	-3.181275e-03	
1337	2.860000e+00	1.100000e+00	-3.190243e-03	
1338	2.870000e+00	1.100000e+00	-3.199163e-03	
1339	2.880000e+00	1.100000e+00	-3.208036e-03	
1340	2.890000e+00	1.100000e+00	-3.216862e-03	
1341	2.900000e+00	1.100000e+00	-3.225642e-03	
1342	2.910000e+00	1.100000e+00	-3.234375e-03	
1343	2.920000e+00	1.100000e+00	-3.243062e-03	
1344	2.930000e+00	1.100000e+00	-3.251703e-03	
1345	2.940000e+00	1.100000e+00	-3.260298e-03	
1346	2.950000e+00	1.100000e+00	-3.268847e-03	
1347	2.960000e+00	1.100000e+00	-3.277351e-03	
1348	2.970000e+00	1.100000e+00	-3.285810e-03	
1349	2.980000e+00	1.100000e+00	-3.294224e-03	
1350	2.990000e+00	1.100000e+00	-3.302594e-03	
1351	3.000000e+00	1.100000e+00	-3.310919e-03	
1352	3.010000e+00	1.100000e+00	-3.319200e-03	
1353	3.020000e+00	1.100000e+00	-3.327437e-03	
1354	3.030000e+00	1.100000e+00	-3.335631e-03	
1355	3.040000e+00	1.100000e+00	-3.343781e-03	
1356	3.050000e+00	1.100000e+00	-3.351887e-03	
1357	3.060000e+00	1.100000e+00	-3.359951e-03	
1358	3.070000e+00	1.100000e+00	-3.367973e-03	
1359	3.080000e+00	1.100000e+00	-3.375952e-03	
1360	3.090000e+00	1.100000e+00	-3.383888e-03	
1361	3.100000e+00	1.100000e+00	-3.391783e-03	
1362	3.110000e+00	1.100000e+00	-3.399636e-03	
1363	3.120000e+00	1.100000e+00	-3.407448e-03	
1364	3.130000e+00	1.100000e+00	-3.415218e-03	
1365	3.140000e+00	1.100000e+00	-3.422947e-03	
1366	3.150000e+00	1.100000e+00	-3.430636e-03	
1367	3.160000e+00	1.100000e+00	-3.438284e-03	
1368	3.170000e+00	1.100000e+00	-3.445892e-03	
1369	3.180000e+00	1.100000e+00	-3.453460e-03	
1370	3.190000e+00	1.100000e+00	-3.460988e-03	
1371	3.200000e+00	1.100000e+00	-3.468477e-03	
1372	3.210000e+00	1.100000e+00	-3.475927e-03	
1373	3.220000e+00	1.100000e+00	-3.483337e-03	
1374	3.230000e+00	1.100000e+00	-3.490708e-03	
1375	3.240000e+00	1.100000e+00	-3.498041e-03	
1376	3.250000e+00	1.100000e+00	-3.505336e-03	
1377	3.260000e+00	1.100000e+00	-3.512592e-03	
1378	3.270000e+00	1.100000e+00	-3.519811e-03	
1379	3.280000e+00	1.100000e+00	-3.526992e-03	
1380	3.290000e+00	1.100000e+00	-3.534135e-03	
1381	3.300000e+00	1.100000e+00	-3.541241e-03	
1382	3.310000e+00	1.100000e+00	-3.548310e-03	
1383	3.320000e+00	1.100000e+00	-3.555343e-03	
1384	3.330000e+00	1.100000e+00	-3.562338e-03	
1385	3.340000e+00	1.100000e+00	-3.569298e-03	
1386	3.350000e+00	1.100000e+00	-3.576221e-03	
1387	3.360000e+00	1.100000e+00	-3.583108e-03	
1388	3.370000e+00	1.100000e+00	-3.589960e-03	

Index   sweep           v(2)            vds#branch      
--------------------------------------------------------------------------------
1389	3.380000e+00	1.100000e+00	-3.596776e-03	
1390	3.390000e+00	1.100000e+00	-3.603557e-03	
1391	3.400000e+00	1.100000e+00	-3.610303e-03	
1392	3.410000e+00	1.100000e+00	-3.617014e-03	
1393	3.420000e+00	1.100000e+00	-3.623690e-03	
1394	3.430000e+00	1.100000e+00	-3.630332e-03	
1395	3.440000e+00	1.100000e+00	-3.636939e-03	
1396	3.450000e+00	1.100000e+00	-3.643513e-03	
1397	3.460000e+00	1.100000e+00	-3.650052e-03	
1398	3.470000e+00	1.100000e+00	-3.656558e-03	
1399	3.480000e+00	1.100000e+00	-3.663030e-03	
1400	3.490000e+00	1.100000e+00	-3.669470e-03	
1401	3.500000e+00	1.100000e+00	-3.675876e-03	
1402	-3.500000e+00	2.100000e+00	-2.110000e-12	
1403	-3.490000e+00	2.100000e+00	-2.110000e-12	
1404	-3.480000e+00	2.100000e+00	-2.110000e-12	
1405	-3.470000e+00	2.100000e+00	-2.110000e-12	
1406	-3.460000e+00	2.100000e+00	-2.110000e-12	
1407	-3.450000e+00	2.100000e+00	-2.110000e-12	
1408	-3.440000e+00	2.100000e+00	-2.110000e-12	
1409	-3.430000e+00	2.100000e+00	-2.110000e-12	
1410	-3.420000e+00	2.100000e+00	-2.110000e-12	
1411	-3.410000e+00	2.100000e+00	-2.110000e-12	
1412	-3.400000e+00	2.100000e+00	-2.110000e-12	
1413	-3.390000e+00	2.100000e+00	-2.110000e-12	
1414	-3.380000e+00	2.100000e+00	-2.110000e-12	
1415	-3.370000e+00	2.100000e+00	-2.110000e-12	
1416	-3.360000e+00	2.100000e+00	-2.110000e-12	
1417	-3.350000e+00	2.100000e+00	-2.110000e-12	
1418	-3.340000e+00	2.100000e+00	-2.110000e-12	
1419	-3.330000e+00	2.100000e+00	-2.110000e-12	
1420	-3.320000e+00	2.100000e+00	-2.110000e-12	
1421	-3.310000e+00	2.100000e+00	-2.110000e-12	
1422	-3.300000e+00	2.100000e+00	-2.110000e-12	
1423	-3.290000e+00	2.100000e+00	-2.110000e-12	
1424	-3.280000e+00	2.100000e+00	-2.110000e-12	
1425	-3.270000e+00	2.100000e+00	-2.110000e-12	
1426	-3.260000e+00	2.100000e+00	-2.110000e-12	
1427	-3.250000e+00	2.100000e+00	-2.110000e-12	
1428	-3.240000e+00	2.100000e+00	-2.110000e-12	
1429	-3.230000e+00	2.100000e+00	-2.110000e-12	
1430	-3.220000e+00	2.100000e+00	-2.110000e-12	
1431	-3.210000e+00	2.100000e+00	-2.110000e-12	
1432	-3.200000e+00	2.100000e+00	-2.110000e-12	
1433	-3.190000e+00	2.100000e+00	-2.110000e-12	
1434	-3.180000e+00	2.100000e+00	-2.110000e-12	
1435	-3.170000e+00	2.100000e+00	-2.110000e-12	
1436	-3.160000e+00	2.100000e+00	-2.110000e-12	
1437	-3.150000e+00	2.100000e+00	-2.110000e-12	
1438	-3.140000e+00	2.100000e+00	-2.110000e-12	
1439	-3.130000e+00	2.100000e+00	-2.110000e-12	
1440	-3.120000e+00	2.100000e+00	-2.110000e-12	
1441	-3.110000e+00	2.100000e+00	-2.110000e-12	
1442	-3.100000e+00	2.100000e+00	-2.110000e-12	
1443	-3.090000e+00	2.100000e+00	-2.110000e-12	
1444	-3.080000e+00	2.100000e+00	-2.110000e-12	
1445	-3.070000e+00	2.100000e+00	-2.110000e-12	
1446	-3.060000e+00	2.100000e+00	-2.110000e-12	

Index   sweep           v(2)            vds#branch      
--------------------------------------------------------------------------------
1447	-3.050000e+00	2.100000e+00	-2.110000e-12	
1448	-3.040000e+00	2.100000e+00	-2.110000e-12	
1449	-3.030000e+00	2.100000e+00	-2.110000e-12	
1450	-3.020000e+00	2.100000e+00	-2.110000e-12	
1451	-3.010000e+00	2.100000e+00	-2.110000e-12	
1452	-3.000000e+00	2.100000e+00	-2.110000e-12	
1453	-2.990000e+00	2.100000e+00	-2.110000e-12	
1454	-2.980000e+00	2.100000e+00	-2.110000e-12	
1455	-2.970000e+00	2.100000e+00	-2.110000e-12	
1456	-2.960000e+00	2.100000e+00	-2.110000e-12	
1457	-2.950000e+00	2.100000e+00	-2.110000e-12	
1458	-2.940000e+00	2.100000e+00	-2.110000e-12	
1459	-2.930000e+00	2.100000e+00	-2.110000e-12	
1460	-2.920000e+00	2.100000e+00	-2.110000e-12	
1461	-2.910000e+00	2.100000e+00	-2.110000e-12	
1462	-2.900000e+00	2.100000e+00	-2.110000e-12	
1463	-2.890000e+00	2.100000e+00	-2.110000e-12	
1464	-2.880000e+00	2.100000e+00	-2.110000e-12	
1465	-2.870000e+00	2.100000e+00	-2.110000e-12	
1466	-2.860000e+00	2.100000e+00	-2.110000e-12	
1467	-2.850000e+00	2.100000e+00	-2.110000e-12	
1468	-2.840000e+00	2.100000e+00	-2.110000e-12	
1469	-2.830000e+00	2.100000e+00	-2.110000e-12	
1470	-2.820000e+00	2.100000e+00	-2.110000e-12	
1471	-2.810000e+00	2.100000e+00	-2.110000e-12	
1472	-2.800000e+00	2.100000e+00	-2.110000e-12	
1473	-2.790000e+00	2.100000e+00	-2.110000e-12	
1474	-2.780000e+00	2.100000e+00	-2.110000e-12	
1475	-2.770000e+00	2.100000e+00	-2.110000e-12	
1476	-2.760000e+00	2.100000e+00	-2.110000e-12	
1477	-2.750000e+00	2.100000e+00	-2.110000e-12	
1478	-2.740000e+00	2.100000e+00	-2.110000e-12	
1479	-2.730000e+00	2.100000e+00	-2.110000e-12	
1480	-2.720000e+00	2.100000e+00	-2.110000e-12	
1481	-2.710000e+00	2.100000e+00	-2.110000e-12	
1482	-2.700000e+00	2.100000e+00	-2.110000e-12	
1483	-2.690000e+00	2.100000e+00	-2.110000e-12	
1484	-2.680000e+00	2.100000e+00	-2.110000e-12	
1485	-2.670000e+00	2.100000e+00	-2.110000e-12	
1486	-2.660000e+00	2.100000e+00	-2.110000e-12	
1487	-2.650000e+00	2.100000e+00	-2.110000e-12	
1488	-2.640000e+00	2.100000e+00	-2.110000e-12	
1489	-2.630000e+00	2.100000e+00	-2.110000e-12	
1490	-2.620000e+00	2.100000e+00	-2.110000e-12	
1491	-2.610000e+00	2.100000e+00	-2.110000e-12	
1492	-2.600000e+00	2.100000e+00	-2.110000e-12	
1493	-2.590000e+00	2.100000e+00	-2.110000e-12	
1494	-2.580000e+00	2.100000e+00	-2.110000e-12	
1495	-2.570000e+00	2.100000e+00	-2.110000e-12	
1496	-2.560000e+00	2.100000e+00	-2.110000e-12	
1497	-2.550000e+00	2.100000e+00	-2.110000e-12	
1498	-2.540000e+00	2.100000e+00	-2.110000e-12	
1499	-2.530000e+00	2.100000e+00	-2.110000e-12	
1500	-2.520000e+00	2.100000e+00	-2.110000e-12	
1501	-2.510000e+00	2.100000e+00	-2.110000e-12	
1502	-2.500000e+00	2.100000e+00	-2.110000e-12	
1503	-2.490000e+00	2.100000e+00	-2.110000e-12	
1504	-2.480000e+00	2.100000e+00	-2.110000e-12	

Index   sweep           v(2)            vds#branch      
--------------------------------------------------------------------------------
1505	-2.470000e+00	2.100000e+00	-2.110000e-12	
1506	-2.460000e+00	2.100000e+00	-2.110000e-12	
1507	-2.450000e+00	2.100000e+00	-2.110000e-12	
1508	-2.440000e+00	2.100000e+00	-2.110000e-12	
1509	-2.430000e+00	2.100000e+00	-2.110000e-12	
1510	-2.420000e+00	2.100000e+00	-2.110000e-12	
1511	-2.410000e+00	2.100000e+00	-2.110000e-12	
1512	-2.400000e+00	2.100000e+00	-2.110000e-12	
1513	-2.390000e+00	2.100000e+00	-2.110000e-12	
1514	-2.380000e+00	2.100000e+00	-2.110000e-12	
1515	-2.370000e+00	2.100000e+00	-2.110000e-12	
1516	-2.360000e+00	2.100000e+00	-2.110000e-12	
1517	-2.350000e+00	2.100000e+00	-2.110000e-12	
1518	-2.340000e+00	2.100000e+00	-2.110000e-12	
1519	-2.330000e+00	2.100000e+00	-2.110000e-12	
1520	-2.320000e+00	2.100000e+00	-2.110000e-12	
1521	-2.310000e+00	2.100000e+00	-2.110000e-12	
1522	-2.300000e+00	2.100000e+00	-2.110000e-12	
1523	-2.290000e+00	2.100000e+00	-2.110000e-12	
1524	-2.280000e+00	2.100000e+00	-2.110000e-12	
1525	-2.270000e+00	2.100000e+00	-2.110000e-12	
1526	-2.260000e+00	2.100000e+00	-2.110000e-12	
1527	-2.250000e+00	2.100000e+00	-2.110000e-12	
1528	-2.240000e+00	2.100000e+00	-2.110000e-12	
1529	-2.230000e+00	2.100000e+00	-2.110000e-12	
1530	-2.220000e+00	2.100000e+00	-2.110000e-12	
1531	-2.210000e+00	2.100000e+00	-2.110000e-12	
1532	-2.200000e+00	2.100000e+00	-2.110000e-12	
1533	-2.190000e+00	2.100000e+00	-2.110000e-12	
1534	-2.180000e+00	2.100000e+00	-2.110000e-12	
1535	-2.170000e+00	2.100000e+00	-2.110000e-12	
1536	-2.160000e+00	2.100000e+00	-2.110000e-12	
1537	-2.150000e+00	2.100000e+00	-2.110000e-12	
1538	-2.140000e+00	2.100000e+00	-2.110000e-12	
1539	-2.130000e+00	2.100000e+00	-2.110000e-12	
1540	-2.120000e+00	2.100000e+00	-2.110000e-12	
1541	-2.110000e+00	2.100000e+00	-2.110000e-12	
1542	-2.100000e+00	2.100000e+00	-2.110000e-12	
1543	-2.090000e+00	2.100000e+00	-2.110000e-12	
1544	-2.080000e+00	2.100000e+00	-2.110000e-12	
1545	-2.070000e+00	2.100000e+00	-2.110000e-12	
1546	-2.060000e+00	2.100000e+00	-2.110000e-12	
1547	-2.050000e+00	2.100000e+00	-2.110000e-12	
1548	-2.040000e+00	2.100000e+00	-2.110000e-12	
1549	-2.030000e+00	2.100000e+00	-2.110000e-12	
1550	-2.020000e+00	2.100000e+00	-2.110000e-12	
1551	-2.010000e+00	2.100000e+00	-2.110000e-12	
1552	-2.000000e+00	2.100000e+00	-2.110000e-12	
1553	-1.990000e+00	2.100000e+00	-2.110000e-12	
1554	-1.980000e+00	2.100000e+00	-2.110000e-12	
1555	-1.970000e+00	2.100000e+00	-2.110000e-12	
1556	-1.960000e+00	2.100000e+00	-2.110000e-12	
1557	-1.950000e+00	2.100000e+00	-2.110000e-12	
1558	-1.940000e+00	2.100000e+00	-2.110000e-12	
1559	-1.930000e+00	2.100000e+00	-2.110000e-12	
1560	-1.920000e+00	2.100000e+00	-2.110000e-12	
1561	-1.910000e+00	2.100000e+00	-2.110000e-12	
1562	-1.900000e+00	2.100000e+00	-2.110000e-12	

Index   sweep           v(2)            vds#branch      
--------------------------------------------------------------------------------
1563	-1.890000e+00	2.100000e+00	-2.110000e-12	
1564	-1.880000e+00	2.100000e+00	-2.110000e-12	
1565	-1.870000e+00	2.100000e+00	-2.110000e-12	
1566	-1.860000e+00	2.100000e+00	-2.110000e-12	
1567	-1.850000e+00	2.100000e+00	-2.110000e-12	
1568	-1.840000e+00	2.100000e+00	-2.110000e-12	
1569	-1.830000e+00	2.100000e+00	-2.110000e-12	
1570	-1.820000e+00	2.100000e+00	-2.110000e-12	
1571	-1.810000e+00	2.100000e+00	-2.110000e-12	
1572	-1.800000e+00	2.100000e+00	-2.110000e-12	
1573	-1.790000e+00	2.100000e+00	-2.110000e-12	
1574	-1.780000e+00	2.100000e+00	-2.110000e-12	
1575	-1.770000e+00	2.100000e+00	-2.110000e-12	
1576	-1.760000e+00	2.100000e+00	-2.110000e-12	
1577	-1.750000e+00	2.100000e+00	-2.110000e-12	
1578	-1.740000e+00	2.100000e+00	-2.110000e-12	
1579	-1.730000e+00	2.100000e+00	-2.110000e-12	
1580	-1.720000e+00	2.100000e+00	-2.110000e-12	
1581	-1.710000e+00	2.100000e+00	-2.110000e-12	
1582	-1.700000e+00	2.100000e+00	-2.110000e-12	
1583	-1.690000e+00	2.100000e+00	-2.110000e-12	
1584	-1.680000e+00	2.100000e+00	-2.110000e-12	
1585	-1.670000e+00	2.100000e+00	-2.110000e-12	
1586	-1.660000e+00	2.100000e+00	-2.110000e-12	
1587	-1.650000e+00	2.100000e+00	-2.110000e-12	
1588	-1.640000e+00	2.100000e+00	-2.110000e-12	
1589	-1.630000e+00	2.100000e+00	-2.110000e-12	
1590	-1.620000e+00	2.100000e+00	-2.110000e-12	
1591	-1.610000e+00	2.100000e+00	-2.110000e-12	
1592	-1.600000e+00	2.100000e+00	-2.110000e-12	
1593	-1.590000e+00	2.100000e+00	-2.110000e-12	
1594	-1.580000e+00	2.100000e+00	-2.110000e-12	
1595	-1.570000e+00	2.100000e+00	-2.110000e-12	
1596	-1.560000e+00	2.100000e+00	-2.110000e-12	
1597	-1.550000e+00	2.100000e+00	-2.110000e-12	
1598	-1.540000e+00	2.100000e+00	-2.110000e-12	
1599	-1.530000e+00	2.100000e+00	-2.110000e-12	
1600	-1.520000e+00	2.100000e+00	-2.110000e-12	
1601	-1.510000e+00	2.100000e+00	-2.110000e-12	
1602	-1.500000e+00	2.100000e+00	-2.110000e-12	
1603	-1.490000e+00	2.100000e+00	-2.110000e-12	
1604	-1.480000e+00	2.100000e+00	-2.110000e-12	
1605	-1.470000e+00	2.100000e+00	-2.110000e-12	
1606	-1.460000e+00	2.100000e+00	-2.110000e-12	
1607	-1.450000e+00	2.100000e+00	-2.110000e-12	
1608	-1.440000e+00	2.100000e+00	-2.110000e-12	
1609	-1.430000e+00	2.100000e+00	-2.110000e-12	
1610	-1.420000e+00	2.100000e+00	-2.110000e-12	
1611	-1.410000e+00	2.100000e+00	-2.110000e-12	
1612	-1.400000e+00	2.100000e+00	-2.110000e-12	
1613	-1.390000e+00	2.100000e+00	-2.110000e-12	
1614	-1.380000e+00	2.100000e+00	-2.110000e-12	
1615	-1.370000e+00	2.100000e+00	-2.110000e-12	
1616	-1.360000e+00	2.100000e+00	-2.110000e-12	
1617	-1.350000e+00	2.100000e+00	-2.110000e-12	
1618	-1.340000e+00	2.100000e+00	-2.110000e-12	
1619	-1.330000e+00	2.100000e+00	-2.110000e-12	
1620	-1.320000e+00	2.100000e+00	-2.110000e-12	

Index   sweep           v(2)            vds#branch      
--------------------------------------------------------------------------------
1621	-1.310000e+00	2.100000e+00	-2.110000e-12	
1622	-1.300000e+00	2.100000e+00	-2.110000e-12	
1623	-1.290000e+00	2.100000e+00	-2.110000e-12	
1624	-1.280000e+00	2.100000e+00	-2.110000e-12	
1625	-1.270000e+00	2.100000e+00	-2.110000e-12	
1626	-1.260000e+00	2.100000e+00	-2.110000e-12	
1627	-1.250000e+00	2.100000e+00	-2.110000e-12	
1628	-1.240000e+00	2.100000e+00	-2.110000e-12	
1629	-1.230000e+00	2.100000e+00	-2.110000e-12	
1630	-1.220000e+00	2.100000e+00	-2.110000e-12	
1631	-1.210000e+00	2.100000e+00	-2.110000e-12	
1632	-1.200000e+00	2.100000e+00	-2.110000e-12	
1633	-1.190000e+00	2.100000e+00	-2.110000e-12	
1634	-1.180000e+00	2.100000e+00	-2.110000e-12	
1635	-1.170000e+00	2.100000e+00	-2.110000e-12	
1636	-1.160000e+00	2.100000e+00	-2.110000e-12	
1637	-1.150000e+00	2.100000e+00	-2.110000e-12	
1638	-1.140000e+00	2.100000e+00	-2.110000e-12	
1639	-1.130000e+00	2.100000e+00	-2.110000e-12	
1640	-1.120000e+00	2.100000e+00	-2.110000e-12	
1641	-1.110000e+00	2.100000e+00	-2.110000e-12	
1642	-1.100000e+00	2.100000e+00	-2.110000e-12	
[...]
2396	-5.700000e-01	3.100000e+00	-3.120217e-12	
2397	-5.600000e-01	3.100000e+00	-3.123226e-12	
2398	-5.500000e-01	3.100000e+00	-3.127122e-12	
2399	-5.400000e-01	3.100000e+00	-3.132165e-12	
2400	-5.300000e-01	3.100000e+00	-3.138692e-12	
2401	-5.200000e-01	3.100000e+00	-3.147143e-12	
2402	-5.100000e-01	3.100000e+00	-3.158082e-12	
2403	-5.000000e-01	3.100000e+00	-3.172242e-12	
2404	-4.900000e-01	3.100000e+00	-3.190574e-12	
2405	-4.800000e-01	3.100000e+00	-3.214303e-12	
2406	-4.700000e-01	3.100000e+00	-3.245021e-12	
2407	-4.600000e-01	3.100000e+00	-3.284786e-12	
2408	-4.500000e-01	3.100000e+00	-3.336261e-12	
2409	-4.400000e-01	3.100000e+00	-3.402895e-12	
2410	-4.300000e-01	3.100000e+00	-3.489152e-12	
2411	-4.200000e-01	3.100000e+00	-3.600810e-12	
2412	-4.100000e-01	3.100000e+00	-3.745348e-12	
2413	-4.000000e-01	3.100000e+00	-3.932448e-12	
2414	-3.900000e-01	3.100000e+00	-4.174643e-12	
2415	-3.800000e-01	3.100000e+00	-4.488152e-12	
2416	-3.700000e-01	3.100000e+00	-4.893971e-12	
2417	-3.600000e-01	3.100000e+00	-5.419277e-12	
2418	-3.500000e-01	3.100000e+00	-6.099243e-12	
2419	-3.400000e-01	3.100000e+00	-6.979394e-12	
2420	-3.300000e-01	3.100000e+00	-8.118652e-12	
2421	-3.200000e-01	3.100000e+00	-9.593274e-12	
2422	-3.100000e-01	3.100000e+00	-1.150195e-11	
2423	-3.000000e-01	3.100000e+00	-1.397239e-11	
2424	-2.900000e-01	3.100000e+00	-1.716989e-11	
2425	-2.800000e-01	3.100000e+00	-2.130829e-11	
2426	-2.700000e-01	3.100000e+00	-2.666435e-11	
2427	-2.600000e-01	3.100000e+00	-3.359611e-11	
2428	-2.500000e-01	3.100000e+00	-4.256681e-11	
2429	-2.400000e-01	3.100000e+00	-5.417574e-11	
2430	-2.300000e-01	3.100000e+00	-6.919810e-11	
2431	-2.200000e-01	3.100000e+00	-8.863653e-11	
2432	-2.100000e-01	3.100000e+00	-1.137877e-10	

Index   sweep           v(2)            vds#branch      
--------------------------------------------------------------------------------
2433	-2.000000e-01	3.100000e+00	-1.463285e-10	
2434	-1.900000e-01	3.100000e+00	-1.884267e-10	
2435	-1.800000e-01	3.100000e+00	-2.428846e-10	
2436	-1.700000e-01	3.100000e+00	-3.133241e-10	
2437	-1.600000e-01	3.100000e+00	-4.044251e-10	
2438	-1.500000e-01	3.100000e+00	-5.222332e-10	
2439	-1.400000e-01	3.100000e+00	-6.745558e-10	
2440	-1.300000e-01	3.100000e+00	-8.714728e-10	
2441	-1.200000e-01	3.100000e+00	-1.125993e-09	
2442	-1.100000e-01	3.100000e+00	-1.454896e-09	
2443	-1.000000e-01	3.100000e+00	-1.879822e-09	
2444	-9.000000e-02	3.100000e+00	-2.428655e-09	
2445	-8.000000e-02	3.100000e+00	-3.137311e-09	
2446	-7.000000e-02	3.100000e+00	-4.052017e-09	
2447	-6.000000e-02	3.100000e+00	-5.232224e-09	
2448	-5.000000e-02	3.100000e+00	-6.754331e-09	
2449	-4.000000e-02	3.100000e+00	-8.716411e-09	
2450	-3.000000e-02	3.100000e+00	-1.124424e-08	
2451	-2.000000e-02	3.100000e+00	-1.449889e-08	
2452	-1.000000e-02	3.100000e+00	-1.868642e-08	
2453	-3.033337e-14	3.100000e+00	-2.406998e-08	
2454	1.000000e-02	3.100000e+00	-3.098506e-08	
2455	2.000000e-02	3.100000e+00	-3.985867e-08	
2456	3.000000e-02	3.100000e+00	-5.123305e-08	
2457	4.000000e-02	3.100000e+00	-6.579533e-08	
2458	5.000000e-02	3.100000e+00	-8.441403e-08	
2459	6.000000e-02	3.100000e+00	-1.081840e-07	
2460	7.000000e-02	3.100000e+00	-1.384814e-07	
2461	8.000000e-02	3.100000e+00	-1.770306e-07	
2462	9.000000e-02	3.100000e+00	-2.259852e-07	
2463	1.000000e-01	3.100000e+00	-2.880253e-07	
2464	1.100000e-01	3.100000e+00	-3.664743e-07	
2465	1.200000e-01	3.100000e+00	-4.654374e-07	
2466	1.300000e-01	3.100000e+00	-5.899662e-07	
2467	1.400000e-01	3.100000e+00	-7.462516e-07	
2468	1.500000e-01	3.100000e+00	-9.418503e-07	
2469	1.600000e-01	3.100000e+00	-1.185946e-06	
2470	1.700000e-01	3.100000e+00	-1.489652e-06	
2471	1.800000e-01	3.100000e+00	-1.866346e-06	
2472	1.900000e-01	3.100000e+00	-2.332052e-06	
2473	2.000000e-01	3.100000e+00	-2.905829e-06	
2474	2.100000e-01	3.100000e+00	-3.610184e-06	
2475	2.200000e-01	3.100000e+00	-4.471440e-06	
2476	2.300000e-01	3.100000e+00	-5.520042e-06	
2477	2.400000e-01	3.100000e+00	-6.790715e-06	
2478	2.500000e-01	3.100000e+00	-8.322428e-06	
2479	2.600000e-01	3.100000e+00	-1.015807e-05	
2480	2.700000e-01	3.100000e+00	-1.234377e-05	
2481	2.800000e-01	3.100000e+00	-1.492791e-05	
2482	2.900000e-01	3.100000e+00	-1.795965e-05	
2483	3.000000e-01	3.100000e+00	-2.148728e-05	
2484	3.100000e-01	3.100000e+00	-2.555628e-05	
2485	3.200000e-01	3.100000e+00	-3.020736e-05	
2486	3.300000e-01	3.100000e+00	-3.547467e-05	
2487	3.400000e-01	3.100000e+00	-4.138427e-05	
2488	3.500000e-01	3.100000e+00	-4.795305e-05	
2489	3.600000e-01	3.100000e+00	-5.518822e-05	
2490	3.700000e-01	3.100000e+00	-6.308731e-05	

Index   sweep           v(2)            vds#branch      
--------------------------------------------------------------------------------
2491	3.800000e-01	3.100000e+00	-7.163876e-05	
2492	3.900000e-01	3.100000e+00	-8.082288e-05	
2493	4.000000e-01	3.100000e+00	-9.061314e-05	
2494	4.100000e-01	3.100000e+00	-1.009777e-04	
2495	4.200000e-01	3.100000e+00	-1.118807e-04	
2496	4.300000e-01	3.100000e+00	-1.232842e-04	
2497	4.400000e-01	3.100000e+00	-1.351492e-04	
2498	4.500000e-01	3.100000e+00	-1.474365e-04	
2499	4.600000e-01	3.100000e+00	-1.601082e-04	
2500	4.700000e-01	3.100000e+00	-1.731283e-04	
2501	4.800000e-01	3.100000e+00	-1.864627e-04	
2502	4.900000e-01	3.100000e+00	-2.000801e-04	
2503	5.000000e-01	3.100000e+00	-2.139519e-04	
2504	5.100000e-01	3.100000e+00	-2.280523e-04	
2505	5.200000e-01	3.100000e+00	-2.423582e-04	
2506	5.300000e-01	3.100000e+00	-2.568491e-04	
2507	5.400000e-01	3.100000e+00	-2.715070e-04	
2508	5.500000e-01	3.100000e+00	-2.863160e-04	
2509	5.600000e-01	3.100000e+00	-3.012624e-04	
2510	5.700000e-01	3.100000e+00	-3.163342e-04	
2511	5.800000e-01	3.100000e+00	-3.315211e-04	
2512	5.900000e-01	3.100000e+00	-3.468140e-04	
2513	6.000000e-01	3.100000e+00	-3.622053e-04	
2514	6.100000e-01	3.100000e+00	-3.776883e-04	
2515	6.200000e-01	3.100000e+00	-3.932572e-04	
2516	6.300000e-01	3.100000e+00	-4.089069e-04	
2517	6.400000e-01	3.100000e+00	-4.246331e-04	
2518	6.500000e-01	3.100000e+00	-4.404320e-04	
2519	6.600000e-01	3.100000e+00	-4.563003e-04	
2520	6.700000e-01	3.100000e+00	-4.722349e-04	
2521	6.800000e-01	3.100000e+00	-4.882333e-04	
2522	6.900000e-01	3.100000e+00	-5.042930e-04	
2523	7.000000e-01	3.100000e+00	-5.204118e-04	
2524	7.100000e-01	3.100000e+00	-5.365878e-04	
2525	7.200000e-01	3.100000e+00	-5.528190e-04	
2526	7.300000e-01	3.100000e+00	-5.691039e-04	
2527	7.400000e-01	3.100000e+00	-5.854407e-04	
2528	7.500000e-01	3.100000e+00	-6.018280e-04	
2529	7.600000e-01	3.100000e+00	-6.182641e-04	
2530	7.700000e-01	3.100000e+00	-6.347478e-04	
2531	7.800000e-01	3.100000e+00	-6.512776e-04	
2532	7.900000e-01	3.100000e+00	-6.678521e-04	
2533	8.000000e-01	3.100000e+00	-6.844701e-04	
2534	8.100000e-01	3.100000e+00	-7.011303e-04	
2535	8.200000e-01	3.100000e+00	-7.178315e-04	
2536	8.300000e-01	3.100000e+00	-7.345723e-04	
2537	8.400000e-01	3.100000e+00	-7.513517e-04	
2538	8.500000e-01	3.100000e+00	-7.681684e-04	
2539	8.600000e-01	3.100000e+00	-7.850213e-04	
2540	8.700000e-01	3.100000e+00	-8.019091e-04	
2541	8.800000e-01	3.100000e+00	-8.188309e-04	
2542	8.900000e-01	3.100000e+00	-8.357855e-04	
2543	9.000000e-01	3.100000e+00	-8.527717e-04	
2544	9.100000e-01	3.100000e+00	-8.697886e-04	
2545	9.200000e-01	3.100000e+00	-8.868351e-04	
2546	9.300000e-01	3.100000e+00	-9.039101e-04	
2547	9.400000e-01	3.100000e+00	-9.210128e-04	
2548	9.500000e-01	3.100000e+00	-9.381420e-04	

Index   sweep           v(2)            vds#branch      
--------------------------------------------------------------------------------
2549	9.600000e-01	3.100000e+00	-9.552968e-04	
2550	9.700000e-01	3.100000e+00	-9.724763e-04	
2551	9.800000e-01	3.100000e+00	-9.896796e-04	
2552	9.900000e-01	3.100000e+00	-1.006906e-03	
2553	1.000000e+00	3.100000e+00	-1.024154e-03	
2554	1.010000e+00	3.100000e+00	-1.041423e-03	
2555	1.020000e+00	3.100000e+00	-1.058713e-03	
2556	1.030000e+00	3.100000e+00	-1.076022e-03	
2557	1.040000e+00	3.100000e+00	-1.093349e-03	
2558	1.050000e+00	3.100000e+00	-1.110695e-03	
2559	1.060000e+00	3.100000e+00	-1.128058e-03	
2560	1.070000e+00	3.100000e+00	-1.145437e-03	
2561	1.080000e+00	3.100000e+00	-1.162831e-03	
2562	1.090000e+00	3.100000e+00	-1.180241e-03	
2563	1.100000e+00	3.100000e+00	-1.197665e-03	
2564	1.110000e+00	3.100000e+00	-1.215103e-03	
2565	1.120000e+00	3.100000e+00	-1.232554e-03	
2566	1.130000e+00	3.100000e+00	-1.250017e-03	
2567	1.140000e+00	3.100000e+00	-1.267492e-03	
2568	1.150000e+00	3.100000e+00	-1.284978e-03	
2569	1.160000e+00	3.100000e+00	-1.302475e-03	
2570	1.170000e+00	3.100000e+00	-1.319981e-03	
2571	1.180000e+00	3.100000e+00	-1.337498e-03	
2572	1.190000e+00	3.100000e+00	-1.355023e-03	
2573	1.200000e+00	3.100000e+00	-1.372557e-03	
2574	1.210000e+00	3.100000e+00	-1.390098e-03	
2575	1.220000e+00	3.100000e+00	-1.407647e-03	
2576	1.230000e+00	3.100000e+00	-1.425203e-03	
2577	1.240000e+00	3.100000e+00	-1.442766e-03	
2578	1.250000e+00	3.100000e+00	-1.460334e-03	
2579	1.260000e+00	3.100000e+00	-1.477909e-03	
2580	1.270000e+00	3.100000e+00	-1.495488e-03	
2581	1.280000e+00	3.100000e+00	-1.513072e-03	
2582	1.290000e+00	3.100000e+00	-1.530661e-03	
2583	1.300000e+00	3.100000e+00	-1.548253e-03	
2584	1.310000e+00	3.100000e+00	-1.565850e-03	
2585	1.320000e+00	3.100000e+00	-1.583449e-03	
2586	1.330000e+00	3.100000e+00	-1.601051e-03	
2587	1.340000e+00	3.100000e+00	-1.618656e-03	
2588	1.350000e+00	3.100000e+00	-1.636263e-03	
2589	1.360000e+00	3.100000e+00	-1.653872e-03	
2590	1.370000e+00	3.100000e+00	-1.671483e-03	
2591	1.380000e+00	3.100000e+00	-1.689094e-03	
2592	1.390000e+00	3.100000e+00	-1.706707e-03	
2593	1.400000e+00	3.100000e+00	-1.724320e-03	
2594	1.410000e+00	3.100000e+00	-1.741933e-03	
2595	1.420000e+00	3.100000e+00	-1.759547e-03	
2596	1.430000e+00	3.100000e+00	-1.777160e-03	
2597	1.440000e+00	3.100000e+00	-1.794772e-03	
2598	1.450000e+00	3.100000e+00	-1.812384e-03	
2599	1.460000e+00	3.100000e+00	-1.829995e-03	
2600	1.470000e+00	3.100000e+00	-1.847604e-03	
2601	1.480000e+00	3.100000e+00	-1.865212e-03	
2602	1.490000e+00	3.100000e+00	-1.882818e-03	
2603	1.500000e+00	3.100000e+00	-1.900421e-03	
2604	1.510000e+00	3.100000e+00	-1.918023e-03	
2605	1.520000e+00	3.100000e+00	-1.935622e-03	
2606	1.530000e+00	3.100000e+00	-1.953218e-03	

Index   sweep           v(2)            vds#branch      
--------------------------------------------------------------------------------
2607	1.540000e+00	3.100000e+00	-1.970812e-03	
2608	1.550000e+00	3.100000e+00	-1.988402e-03	
2609	1.560000e+00	3.100000e+00	-2.005989e-03	
2610	1.570000e+00	3.100000e+00	-2.023572e-03	
2611	1.580000e+00	3.100000e+00	-2.041151e-03	
2612	1.590000e+00	3.100000e+00	-2.058727e-03	
2613	1.600000e+00	3.100000e+00	-2.076298e-03	
2614	1.610000e+00	3.100000e+00	-2.093865e-03	
2615	1.620000e+00	3.100000e+00	-2.111427e-03	
2616	1.630000e+00	3.100000e+00	-2.128985e-03	
2617	1.640000e+00	3.100000e+00	-2.146538e-03	
2618	1.650000e+00	3.100000e+00	-2.164086e-03	
2619	1.660000e+00	3.100000e+00	-2.181628e-03	
2620	1.670000e+00	3.100000e+00	-2.199165e-03	
2621	1.680000e+00	3.100000e+00	-2.216697e-03	
2622	1.690000e+00	3.100000e+00	-2.234223e-03	
2623	1.700000e+00	3.100000e+00	-2.251743e-03	
2624	1.710000e+00	3.100000e+00	-2.269257e-03	
2625	1.720000e+00	3.100000e+00	-2.286765e-03	
2626	1.730000e+00	3.100000e+00	-2.304266e-03	
2627	1.740000e+00	3.100000e+00	-2.321761e-03	
2628	1.750000e+00	3.100000e+00	-2.339249e-03	
2629	1.760000e+00	3.100000e+00	-2.356731e-03	
2630	1.770000e+00	3.100000e+00	-2.374206e-03	
2631	1.780000e+00	3.100000e+00	-2.391674e-03	
2632	1.790000e+00	3.100000e+00	-2.409134e-03	
2633	1.800000e+00	3.100000e+00	-2.426588e-03	
2634	1.810000e+00	3.100000e+00	-2.444033e-03	
2635	1.820000e+00	3.100000e+00	-2.461472e-03	
2636	1.830000e+00	3.100000e+00	-2.478903e-03	
2637	1.840000e+00	3.100000e+00	-2.496326e-03	
2638	1.850000e+00	3.100000e+00	-2.513741e-03	
2639	1.860000e+00	3.100000e+00	-2.531148e-03	
2640	1.870000e+00	3.100000e+00	-2.548547e-03	
2641	1.880000e+00	3.100000e+00	-2.565937e-03	
2642	1.890000e+00	3.100000e+00	-2.583319e-03	
2643	1.900000e+00	3.100000e+00	-2.600693e-03	
2644	1.910000e+00	3.100000e+00	-2.618059e-03	
2645	1.920000e+00	3.100000e+00	-2.635415e-03	
2646	1.930000e+00	3.100000e+00	-2.652763e-03	
2647	1.940000e+00	3.100000e+00	-2.670102e-03	
2648	1.950000e+00	3.100000e+00	-2.687431e-03	
2649	1.960000e+00	3.100000e+00	-2.704752e-03	
2650	1.970000e+00	3.100000e+00	-2.722064e-03	
2651	1.980000e+00	3.100000e+00	-2.739366e-03	
2652	1.990000e+00	3.100000e+00	-2.756659e-03	
2653	2.000000e+00	3.100000e+00	-2.773942e-03	
2654	2.010000e+00	3.100000e+00	-2.791216e-03	
2655	2.020000e+00	3.100000e+00	-2.808480e-03	
2656	2.030000e+00	3.100000e+00	-2.825734e-03	
2657	2.040000e+00	3.100000e+00	-2.842978e-03	
2658	2.050000e+00	3.100000e+00	-2.860213e-03	
2659	2.060000e+00	3.100000e+00	-2.877437e-03	
2660	2.070000e+00	3.100000e+00	-2.894651e-03	
2661	2.080000e+00	3.100000e+00	-2.911855e-03	
2662	2.090000e+00	3.100000e+00	-2.929049e-03	
2663	2.100000e+00	3.100000e+00	-2.946232e-03	
2664	2.110000e+00	3.100000e+00	-2.963405e-03	

Index   sweep           v(2)            vds#branch      
--------------------------------------------------------------------------------
2665	2.120000e+00	3.100000e+00	-2.980567e-03	
2666	2.130000e+00	3.100000e+00	-2.997718e-03	
2667	2.140000e+00	3.100000e+00	-3.014859e-03	
2668	2.150000e+00	3.100000e+00	-3.031989e-03	
2669	2.160000e+00	3.100000e+00	-3.049108e-03	
2670	2.170000e+00	3.100000e+00	-3.066216e-03	
2671	2.180000e+00	3.100000e+00	-3.083313e-03	
2672	2.190000e+00	3.100000e+00	-3.100399e-03	
2673	2.200000e+00	3.100000e+00	-3.117473e-03	
2674	2.210000e+00	3.100000e+00	-3.134537e-03	
2675	2.220000e+00	3.100000e+00	-3.151589e-03	
2676	2.230000e+00	3.100000e+00	-3.168629e-03	
2677	2.240000e+00	3.100000e+00	-3.185658e-03	
2678	2.250000e+00	3.100000e+00	-3.202676e-03	
2679	2.260000e+00	3.100000e+00	-3.219681e-03	
2680	2.270000e+00	3.100000e+00	-3.236675e-03	
2681	2.280000e+00	3.100000e+00	-3.253657e-03	
2682	2.290000e+00	3.100000e+00	-3.270628e-03	
2683	2.300000e+00	3.100000e+00	-3.287586e-03	
2684	2.310000e+00	3.100000e+00	-3.304532e-03	
2685	2.320000e+00	3.100000e+00	-3.321467e-03	
2686	2.330000e+00	3.100000e+00	-3.338389e-03	
2687	2.340000e+00	3.100000e+00	-3.355299e-03	
2688	2.350000e+00	3.100000e+00	-3.372196e-03	
2689	2.360000e+00	3.100000e+00	-3.389081e-03	
2690	2.370000e+00	3.100000e+00	-3.405954e-03	
2691	2.380000e+00	3.100000e+00	-3.422814e-03	
2692	2.390000e+00	3.100000e+00	-3.439662e-03	
2693	2.400000e+00	3.100000e+00	-3.456497e-03	
2694	2.410000e+00	3.100000e+00	-3.473319e-03	
2695	2.420000e+00	3.100000e+00	-3.490129e-03	
2696	2.430000e+00	3.100000e+00	-3.506926e-03	
2697	2.440000e+00	3.100000e+00	-3.523709e-03	
2698	2.450000e+00	3.100000e+00	-3.540480e-03	
2699	2.460000e+00	3.100000e+00	-3.557238e-03	
2700	2.470000e+00	3.100000e+00	-3.573983e-03	
2701	2.480000e+00	3.100000e+00	-3.590715e-03	
2702	2.490000e+00	3.100000e+00	-3.607433e-03	
2703	2.500000e+00	3.100000e+00	-3.624138e-03	
2704	2.510000e+00	3.100000e+00	-3.640830e-03	
2705	2.520000e+00	3.100000e+00	-3.657509e-03	
2706	2.530000e+00	3.100000e+00	-3.674174e-03	
2707	2.540000e+00	3.100000e+00	-3.690825e-03	
2708	2.550000e+00	3.100000e+00	-3.707463e-03	
2709	2.560000e+00	3.100000e+00	-3.724087e-03	
2710	2.570000e+00	3.100000e+00	-3.740698e-03	
2711	2.580000e+00	3.100000e+00	-3.757295e-03	
2712	2.590000e+00	3.100000e+00	-3.773878e-03	
2713	2.600000e+00	3.100000e+00	-3.790447e-03	
2714	2.610000e+00	3.100000e+00	-3.807002e-03	
2715	2.620000e+00	3.100000e+00	-3.823544e-03	
2716	2.630000e+00	3.100000e+00	-3.840071e-03	
2717	2.640000e+00	3.100000e+00	-3.856584e-03	
2718	2.650000e+00	3.100000e+00	-3.873083e-03	
2719	2.660000e+00	3.100000e+00	-3.889568e-03	
2720	2.670000e+00	3.100000e+00	-3.906038e-03	
2721	2.680000e+00	3.100000e+00	-3.922494e-03	
2722	2.690000e+00	3.100000e+00	-3.938936e-03	

Index   sweep           v(2)            vds#branch      
--------------------------------------------------------------------------------
2723	2.700000e+00	3.100000e+00	-3.955363e-03	
2724	2.710000e+00	3.100000e+00	-3.971776e-03	
2725	2.720000e+00	3.100000e+00	-3.988175e-03	
2726	2.730000e+00	3.100000e+00	-4.004558e-03	
2727	2.740000e+00	3.100000e+00	-4.020927e-03	
2728	2.750000e+00	3.100000e+00	-4.037281e-03	
2729	2.760000e+00	3.100000e+00	-4.053621e-03	
2730	2.770000e+00	3.100000e+00	-4.069946e-03	
2731	2.780000e+00	3.100000e+00	-4.086255e-03	
2732	2.790000e+00	3.100000e+00	-4.102550e-03	
2733	2.800000e+00	3.100000e+00	-4.118830e-03	
2734	2.810000e+00	3.100000e+00	-4.135095e-03	
2735	2.820000e+00	3.100000e+00	-4.151345e-03	
2736	2.830000e+00	3.100000e+00	-4.167579e-03	
2737	2.840000e+00	3.100000e+00	-4.183798e-03	
2738	2.850000e+00	3.100000e+00	-4.200002e-03	
2739	2.860000e+00	3.100000e+00	-4.216191e-03	
2740	2.870000e+00	3.100000e+00	-4.232365e-03	
2741	2.880000e+00	3.100000e+00	-4.248522e-03	
2742	2.890000e+00	3.100000e+00	-4.264665e-03	
2743	2.900000e+00	3.100000e+00	-4.280792e-03	
2744	2.910000e+00	3.100000e+00	-4.296903e-03	
2745	2.920000e+00	3.100000e+00	-4.312999e-03	
2746	2.930000e+00	3.100000e+00	-4.329079e-03	
2747	2.940000e+00	3.100000e+00	-4.345143e-03	
2748	2.950000e+00	3.100000e+00	-4.361192e-03	
2749	2.960000e+00	3.100000e+00	-4.377224e-03	
2750	2.970000e+00	3.100000e+00	-4.393241e-03	
2751	2.980000e+00	3.100000e+00	-4.409242e-03	
2752	2.990000e+00	3.100000e+00	-4.425226e-03	
2753	3.000000e+00	3.100000e+00	-4.441195e-03	
2754	3.010000e+00	3.100000e+00	-4.457148e-03	
2755	3.020000e+00	3.100000e+00	-4.473084e-03	
2756	3.030000e+00	3.100000e+00	-4.489004e-03	
2757	3.040000e+00	3.100000e+00	-4.504908e-03	
2758	3.050000e+00	3.100000e+00	-4.520796e-03	
2759	3.060000e+00	3.100000e+00	-4.536667e-03	
2760	3.070000e+00	3.100000e+00	-4.552522e-03	
2761	3.080000e+00	3.100000e+00	-4.568360e-03	
2762	3.090000e+00	3.100000e+00	-4.584182e-03	
2763	3.100000e+00	3.100000e+00	-4.599987e-03	
2764	3.110000e+00	3.100000e+00	-4.615775e-03	
2765	3.120000e+00	3.100000e+00	-4.631547e-03	
2766	3.130000e+00	3.100000e+00	-4.647302e-03	
2767	3.140000e+00	3.100000e+00	-4.663041e-03	
2768	3.150000e+00	3.100000e+00	-4.678762e-03	
2769	3.160000e+00	3.100000e+00	-4.694467e-03	
2770	3.170000e+00	3.100000e+00	-4.710154e-03	
2771	3.180000e+00	3.100000e+00	-4.725825e-03	
2772	3.190000e+00	3.100000e+00	-4.741478e-03	
2773	3.200000e+00	3.100000e+00	-4.757115e-03	
2774	3.210000e+00	3.100000e+00	-4.772734e-03	
2775	3.220000e+00	3.100000e+00	-4.788336e-03	
2776	3.230000e+00	3.100000e+00	-4.803921e-03	
2777	3.240000e+00	3.100000e+00	-4.819489e-03	
2778	3.250000e+00	3.100000e+00	-4.835039e-03	
2779	3.260000e+00	3.100000e+00	-4.850571e-03	
2780	3.270000e+00	3.100000e+00	-4.866087e-03	

Index   sweep           v(2)            vds#branch      
--------------------------------------------------------------------------------
2781	3.280000e+00	3.100000e+00	-4.881584e-03	
2782	3.290000e+00	3.100000e+00	-4.897064e-03	
2783	3.300000e+00	3.100000e+00	-4.912527e-03	
2784	3.310000e+00	3.100000e+00	-4.927972e-03	
2785	3.320000e+00	3.100000e+00	-4.943399e-03	
2786	3.330000e+00	3.100000e+00	-4.958808e-03	
2787	3.340000e+00	3.100000e+00	-4.974199e-03	
2788	3.350000e+00	3.100000e+00	-4.989573e-03	
2789	3.360000e+00	3.100000e+00	-5.004928e-03	
2790	3.370000e+00	3.100000e+00	-5.020266e-03	
2791	3.380000e+00	3.100000e+00	-5.035585e-03	
2792	3.390000e+00	3.100000e+00	-5.050886e-03	
2793	3.400000e+00	3.100000e+00	-5.066169e-03	
2794	3.410000e+00	3.100000e+00	-5.081434e-03	
2795	3.420000e+00	3.100000e+00	-5.096681e-03	
2796	3.430000e+00	3.100000e+00	-5.111909e-03	
2797	3.440000e+00	3.100000e+00	-5.127118e-03	
2798	3.450000e+00	3.100000e+00	-5.142310e-03	
2799	3.460000e+00	3.100000e+00	-5.157482e-03	
2800	3.470000e+00	3.100000e+00	-5.172636e-03	
2801	3.480000e+00	3.100000e+00	-5.187771e-03	
2802	3.490000e+00	3.100000e+00	-5.202888e-03	
2803	3.500000e+00	3.100000e+00	-5.217986e-03	

CPU time since last call: 0.580 seconds.

Total CPU time: 0.580 seconds.

Current dynamic memory usage = 425984,
Dynamic memory limit = -18809400.

