Note: can't find init file.

Circuit: *****Single NMOS Transistor For BSIM3V3.1  general purpose check (Id-Vd) ***

Warning: Pd = 0 is less than W.
Warning: Ps = 0 is less than W.
Circuit: *****Single NMOS Transistor For BSIM3V3.1  general purpose check (Id-Vd) ***
Date: Thu Jul 28 21:10:03  2005


  *****Single NMOS Transistor For BSIM3V3.1  general purpose check (Id-Vd) ***
  DC transfer characteristic  Thu Jul 28 21:10:03  2005
--------------------------------------------------------------------------------
Index   sweep           v(1)            vds#branch      
--------------------------------------------------------------------------------
0	0.000000e+00	0.000000e+00	0.000000e+00	
1	5.000000e-02	0.000000e+00	-1.033414e-10	
2	1.000000e-01	0.000000e+00	-1.194015e-10	
3	1.500000e-01	0.000000e+00	-1.297008e-10	
4	2.000000e-01	0.000000e+00	-1.386561e-10	
5	2.500000e-01	0.000000e+00	-1.470854e-10	
6	3.000000e-01	0.000000e+00	-1.553052e-10	
7	3.500000e-01	0.000000e+00	-1.634792e-10	
8	4.000000e-01	0.000000e+00	-1.717061e-10	
9	4.500000e-01	0.000000e+00	-1.800513e-10	
10	5.000000e-01	0.000000e+00	-1.885614e-10	
11	5.500000e-01	0.000000e+00	-1.972721e-10	
12	6.000000e-01	0.000000e+00	-2.062118e-10	
13	6.500000e-01	0.000000e+00	-2.154045e-10	
14	7.000000e-01	0.000000e+00	-2.248709e-10	
15	7.500000e-01	0.000000e+00	-2.346299e-10	
16	8.000000e-01	0.000000e+00	-2.446989e-10	
17	8.500000e-01	0.000000e+00	-2.550943e-10	
18	9.000000e-01	0.000000e+00	-2.658321e-10	
19	9.500000e-01	0.000000e+00	-2.769278e-10	
20	1.000000e+00	0.000000e+00	-2.883967e-10	
21	1.050000e+00	0.000000e+00	-3.002542e-10	
22	1.100000e+00	0.000000e+00	-3.125156e-10	
23	1.150000e+00	0.000000e+00	-3.251965e-10	
24	1.200000e+00	0.000000e+00	-3.383127e-10	
25	1.250000e+00	0.000000e+00	-3.518801e-10	
26	1.300000e+00	0.000000e+00	-3.659150e-10	
27	1.350000e+00	0.000000e+00	-3.804343e-10	
28	1.400000e+00	0.000000e+00	-3.954550e-10	
29	1.450000e+00	0.000000e+00	-4.109947e-10	
30	1.500000e+00	0.000000e+00	-4.270712e-10	
31	1.550000e+00	0.000000e+00	-4.437032e-10	
32	1.600000e+00	0.000000e+00	-4.609097e-10	
33	1.650000e+00	0.000000e+00	-4.787101e-10	
34	1.700000e+00	0.000000e+00	-4.971247e-10	
35	1.750000e+00	0.000000e+00	-5.161741e-10	
36	1.800000e+00	0.000000e+00	-5.358796e-10	
37	1.850000e+00	0.000000e+00	-5.562633e-10	
38	1.900000e+00	0.000000e+00	-5.773477e-10	
39	1.950000e+00	0.000000e+00	-5.991562e-10	
40	2.000000e+00	0.000000e+00	-6.217129e-10	
41	2.050000e+00	0.000000e+00	-6.450425e-10	
42	2.100000e+00	0.000000e+00	-6.691705e-10	
43	2.150000e+00	0.000000e+00	-6.941233e-10	
44	2.200000e+00	0.000000e+00	-7.199280e-10	
45	2.250000e+00	0.000000e+00	-7.466126e-10	
46	2.300000e+00	0.000000e+00	-7.742059e-10	
47	2.350000e+00	0.000000e+00	-8.027377e-10	
48	2.400000e+00	0.000000e+00	-8.322387e-10	
49	2.450000e+00	0.000000e+00	-8.627404e-10	
50	2.500000e+00	0.000000e+00	-8.942756e-10	
51	2.550000e+00	0.000000e+00	-9.268777e-10	
52	2.600000e+00	0.000000e+00	-9.605815e-10	
53	2.650000e+00	0.000000e+00	-9.954227e-10	
54	2.700000e+00	0.000000e+00	-1.031438e-09	

Index   sweep           v(1)            vds#branch      
--------------------------------------------------------------------------------
55	2.750000e+00	0.000000e+00	-1.068666e-09	
56	2.800000e+00	0.000000e+00	-1.107145e-09	
57	2.850000e+00	0.000000e+00	-1.146916e-09	
58	2.900000e+00	0.000000e+00	-1.188020e-09	
59	2.950000e+00	0.000000e+00	-1.230501e-09	
60	3.000000e+00	0.000000e+00	-1.274403e-09	
61	3.050000e+00	0.000000e+00	-1.319770e-09	
62	3.100000e+00	0.000000e+00	-1.366652e-09	
63	3.150000e+00	0.000000e+00	-1.415095e-09	
64	3.200000e+00	0.000000e+00	-1.465150e-09	
65	3.250000e+00	0.000000e+00	-1.516868e-09	
66	3.300000e+00	0.000000e+00	-1.570303e-09	
67	3.350000e+00	0.000000e+00	-1.625509e-09	
68	3.400000e+00	0.000000e+00	-1.682543e-09	
69	3.450000e+00	0.000000e+00	-1.741464e-09	
70	3.500000e+00	0.000000e+00	-1.802330e-09	
71	0.000000e+00	5.000000e-01	0.000000e+00	
72	5.000000e-02	5.000000e-01	-6.046270e-05	
73	1.000000e-01	5.000000e-01	-9.422266e-05	
74	1.500000e-01	5.000000e-01	-1.104516e-04	
75	2.000000e-01	5.000000e-01	-1.192788e-04	
76	2.500000e-01	5.000000e-01	-1.253969e-04	
77	3.000000e-01	5.000000e-01	-1.302143e-04	
78	3.500000e-01	5.000000e-01	-1.342678e-04	
79	4.000000e-01	5.000000e-01	-1.378240e-04	
80	4.500000e-01	5.000000e-01	-1.410366e-04	
81	5.000000e-01	5.000000e-01	-1.440020e-04	
82	5.500000e-01	5.000000e-01	-1.467840e-04	
83	6.000000e-01	5.000000e-01	-1.494272e-04	
84	6.500000e-01	5.000000e-01	-1.519632e-04	
85	7.000000e-01	5.000000e-01	-1.544153e-04	
86	7.500000e-01	5.000000e-01	-1.568012e-04	
87	8.000000e-01	5.000000e-01	-1.591343e-04	
88	8.500000e-01	5.000000e-01	-1.614253e-04	
89	9.000000e-01	5.000000e-01	-1.636823e-04	
90	9.500000e-01	5.000000e-01	-1.659122e-04	
91	1.000000e+00	5.000000e-01	-1.681204e-04	
92	1.050000e+00	5.000000e-01	-1.703113e-04	
93	1.100000e+00	5.000000e-01	-1.724886e-04	
94	1.150000e+00	5.000000e-01	-1.746554e-04	
95	1.200000e+00	5.000000e-01	-1.768144e-04	
96	1.250000e+00	5.000000e-01	-1.789677e-04	
97	1.300000e+00	5.000000e-01	-1.811172e-04	
98	1.350000e+00	5.000000e-01	-1.832645e-04	
99	1.400000e+00	5.000000e-01	-1.854111e-04	
100	1.450000e+00	5.000000e-01	-1.875581e-04	
101	1.500000e+00	5.000000e-01	-1.897066e-04	
102	1.550000e+00	5.000000e-01	-1.918576e-04	
103	1.600000e+00	5.000000e-01	-1.940118e-04	
104	1.650000e+00	5.000000e-01	-1.961700e-04	
105	1.700000e+00	5.000000e-01	-1.983329e-04	
106	1.750000e+00	5.000000e-01	-2.005010e-04	
107	1.800000e+00	5.000000e-01	-2.026748e-04	
108	1.850000e+00	5.000000e-01	-2.048548e-04	
109	1.900000e+00	5.000000e-01	-2.070414e-04	
110	1.950000e+00	5.000000e-01	-2.092350e-04	
111	2.000000e+00	5.000000e-01	-2.114359e-04	
112	2.050000e+00	5.000000e-01	-2.136444e-04	

Index   sweep           v(1)            vds#branch      
--------------------------------------------------------------------------------
113	2.100000e+00	5.000000e-01	-2.158609e-04	
114	2.150000e+00	5.000000e-01	-2.180855e-04	
115	2.200000e+00	5.000000e-01	-2.203185e-04	
116	2.250000e+00	5.000000e-01	-2.225602e-04	
117	2.300000e+00	5.000000e-01	-2.248106e-04	
118	2.350000e+00	5.000000e-01	-2.270701e-04	
119	2.400000e+00	5.000000e-01	-2.293387e-04	
120	2.450000e+00	5.000000e-01	-2.316167e-04	
121	2.500000e+00	5.000000e-01	-2.339041e-04	
122	2.550000e+00	5.000000e-01	-2.362012e-04	
123	2.600000e+00	5.000000e-01	-2.385079e-04	
124	2.650000e+00	5.000000e-01	-2.408245e-04	
125	2.700000e+00	5.000000e-01	-2.431511e-04	
126	2.750000e+00	5.000000e-01	-2.454877e-04	
127	2.800000e+00	5.000000e-01	-2.478345e-04	
128	2.850000e+00	5.000000e-01	-2.501915e-04	
129	2.900000e+00	5.000000e-01	-2.525588e-04	
130	2.950000e+00	5.000000e-01	-2.549365e-04	
131	3.000000e+00	5.000000e-01	-2.573247e-04	
132	3.050000e+00	5.000000e-01	-2.597235e-04	
133	3.100000e+00	5.000000e-01	-2.621328e-04	
134	3.150000e+00	5.000000e-01	-2.645529e-04	
135	3.200000e+00	5.000000e-01	-2.669836e-04	
136	3.250000e+00	5.000000e-01	-2.694252e-04	
137	3.300000e+00	5.000000e-01	-2.718776e-04	
138	3.350000e+00	5.000000e-01	-2.743409e-04	
139	3.400000e+00	5.000000e-01	-2.768151e-04	
140	3.450000e+00	5.000000e-01	-2.793003e-04	
141	3.500000e+00	5.000000e-01	-2.817966e-04	
142	0.000000e+00	1.000000e+00	0.000000e+00	
143	5.000000e-02	1.000000e+00	-2.026986e-04	
144	1.000000e-01	1.000000e+00	-3.722347e-04	
145	1.500000e-01	1.000000e+00	-5.121651e-04	
146	2.000000e-01	1.000000e+00	-6.256150e-04	
147	2.500000e-01	1.000000e+00	-7.154318e-04	
148	3.000000e-01	1.000000e+00	-7.844598e-04	
149	3.500000e-01	1.000000e+00	-8.360580e-04	
150	4.000000e-01	1.000000e+00	-8.744359e-04	
151	4.500000e-01	1.000000e+00	-9.037536e-04	
152	5.000000e-01	1.000000e+00	-9.270446e-04	
153	5.500000e-01	1.000000e+00	-9.462307e-04	
154	6.000000e-01	1.000000e+00	-9.625190e-04	
155	6.500000e-01	1.000000e+00	-9.766923e-04	
156	7.000000e-01	1.000000e+00	-9.892777e-04	
157	7.500000e-01	1.000000e+00	-1.000642e-03	
158	8.000000e-01	1.000000e+00	-1.011049e-03	
159	8.500000e-01	1.000000e+00	-1.020691e-03	
160	9.000000e-01	1.000000e+00	-1.029714e-03	
161	9.500000e-01	1.000000e+00	-1.038229e-03	
162	1.000000e+00	1.000000e+00	-1.046322e-03	
163	1.050000e+00	1.000000e+00	-1.054062e-03	
164	1.100000e+00	1.000000e+00	-1.061504e-03	
165	1.150000e+00	1.000000e+00	-1.068691e-03	
166	1.200000e+00	1.000000e+00	-1.075661e-03	
167	1.250000e+00	1.000000e+00	-1.082442e-03	
168	1.300000e+00	1.000000e+00	-1.089060e-03	
169	1.350000e+00	1.000000e+00	-1.095537e-03	
170	1.400000e+00	1.000000e+00	-1.101888e-03	

Index   sweep           v(1)            vds#branch      
--------------------------------------------------------------------------------
171	1.450000e+00	1.000000e+00	-1.108131e-03	
172	1.500000e+00	1.000000e+00	-1.114277e-03	
173	1.550000e+00	1.000000e+00	-1.120338e-03	
174	1.600000e+00	1.000000e+00	-1.126323e-03	
175	1.650000e+00	1.000000e+00	-1.132241e-03	
176	1.700000e+00	1.000000e+00	-1.138100e-03	
177	1.750000e+00	1.000000e+00	-1.143905e-03	
178	1.800000e+00	1.000000e+00	-1.149662e-03	
179	1.850000e+00	1.000000e+00	-1.155377e-03	
180	1.900000e+00	1.000000e+00	-1.161054e-03	
181	1.950000e+00	1.000000e+00	-1.166697e-03	
182	2.000000e+00	1.000000e+00	-1.172310e-03	
183	2.050000e+00	1.000000e+00	-1.177895e-03	
184	2.100000e+00	1.000000e+00	-1.183456e-03	
185	2.150000e+00	1.000000e+00	-1.188995e-03	
186	2.200000e+00	1.000000e+00	-1.194515e-03	
187	2.250000e+00	1.000000e+00	-1.200018e-03	
188	2.300000e+00	1.000000e+00	-1.205506e-03	
189	2.350000e+00	1.000000e+00	-1.210980e-03	
190	2.400000e+00	1.000000e+00	-1.216442e-03	
191	2.450000e+00	1.000000e+00	-1.221894e-03	
192	2.500000e+00	1.000000e+00	-1.227337e-03	
193	2.550000e+00	1.000000e+00	-1.232773e-03	
194	2.600000e+00	1.000000e+00	-1.238202e-03	
195	2.650000e+00	1.000000e+00	-1.243625e-03	
196	2.700000e+00	1.000000e+00	-1.249044e-03	
197	2.750000e+00	1.000000e+00	-1.254459e-03	
198	2.800000e+00	1.000000e+00	-1.259871e-03	
199	2.850000e+00	1.000000e+00	-1.265281e-03	
200	2.900000e+00	1.000000e+00	-1.270690e-03	
201	2.950000e+00	1.000000e+00	-1.276099e-03	
202	3.000000e+00	1.000000e+00	-1.281507e-03	
203	3.050000e+00	1.000000e+00	-1.286917e-03	
204	3.100000e+00	1.000000e+00	-1.292327e-03	
205	3.150000e+00	1.000000e+00	-1.297739e-03	
206	3.200000e+00	1.000000e+00	-1.303153e-03	
207	3.250000e+00	1.000000e+00	-1.308570e-03	
208	3.300000e+00	1.000000e+00	-1.313990e-03	
209	3.350000e+00	1.000000e+00	-1.319413e-03	
210	3.400000e+00	1.000000e+00	-1.324840e-03	
211	3.450000e+00	1.000000e+00	-1.330271e-03	
212	3.500000e+00	1.000000e+00	-1.335706e-03	
213	0.000000e+00	1.500000e+00	0.000000e+00	
214	5.000000e-02	1.500000e+00	-2.784662e-04	
215	1.000000e-01	1.500000e+00	-5.267786e-04	
216	1.500000e-01	1.500000e+00	-7.474068e-04	
217	2.000000e-01	1.500000e+00	-9.425600e-04	
218	2.500000e-01	1.500000e+00	-1.114222e-03	
219	3.000000e-01	1.500000e+00	-1.264177e-03	
220	3.500000e-01	1.500000e+00	-1.394035e-03	
221	4.000000e-01	1.500000e+00	-1.505240e-03	
222	4.500000e-01	1.500000e+00	-1.599087e-03	
223	5.000000e-01	1.500000e+00	-1.676812e-03	
224	5.500000e-01	1.500000e+00	-1.740025e-03	
225	6.000000e-01	1.500000e+00	-1.791129e-03	
226	6.500000e-01	1.500000e+00	-1.832884e-03	
227	7.000000e-01	1.500000e+00	-1.867680e-03	
228	7.500000e-01	1.500000e+00	-1.897302e-03	

Index   sweep           v(1)            vds#branch      
--------------------------------------------------------------------------------
229	8.000000e-01	1.500000e+00	-1.923023e-03	
230	8.500000e-01	1.500000e+00	-1.945748e-03	
231	9.000000e-01	1.500000e+00	-1.966132e-03	
232	9.500000e-01	1.500000e+00	-1.984655e-03	
233	1.000000e+00	1.500000e+00	-2.001677e-03	
234	1.050000e+00	1.500000e+00	-2.017473e-03	
235	1.100000e+00	1.500000e+00	-2.032255e-03	
236	1.150000e+00	1.500000e+00	-2.046188e-03	
237	1.200000e+00	1.500000e+00	-2.059406e-03	
238	1.250000e+00	1.500000e+00	-2.072015e-03	
239	1.300000e+00	1.500000e+00	-2.084103e-03	
240	1.350000e+00	1.500000e+00	-2.095740e-03	
241	1.400000e+00	1.500000e+00	-2.106986e-03	
242	1.450000e+00	1.500000e+00	-2.117891e-03	
243	1.500000e+00	1.500000e+00	-2.128496e-03	
244	1.550000e+00	1.500000e+00	-2.138836e-03	
245	1.600000e+00	1.500000e+00	-2.148943e-03	
246	1.650000e+00	1.500000e+00	-2.158841e-03	
247	1.700000e+00	1.500000e+00	-2.168554e-03	
248	1.750000e+00	1.500000e+00	-2.178101e-03	
249	1.800000e+00	1.500000e+00	-2.187499e-03	
250	1.850000e+00	1.500000e+00	-2.196763e-03	
251	1.900000e+00	1.500000e+00	-2.205906e-03	
252	1.950000e+00	1.500000e+00	-2.214939e-03	
253	2.000000e+00	1.500000e+00	-2.223874e-03	
254	2.050000e+00	1.500000e+00	-2.232718e-03	
255	2.100000e+00	1.500000e+00	-2.241481e-03	
256	2.150000e+00	1.500000e+00	-2.250169e-03	
257	2.200000e+00	1.500000e+00	-2.258789e-03	
258	2.250000e+00	1.500000e+00	-2.267348e-03	
259	2.300000e+00	1.500000e+00	-2.275849e-03	
260	2.350000e+00	1.500000e+00	-2.284299e-03	
261	2.400000e+00	1.500000e+00	-2.292702e-03	
262	2.450000e+00	1.500000e+00	-2.301061e-03	
263	2.500000e+00	1.500000e+00	-2.309381e-03	
264	2.550000e+00	1.500000e+00	-2.317664e-03	
265	2.600000e+00	1.500000e+00	-2.325914e-03	
266	2.650000e+00	1.500000e+00	-2.334133e-03	
267	2.700000e+00	1.500000e+00	-2.342325e-03	
268	2.750000e+00	1.500000e+00	-2.350491e-03	
269	2.800000e+00	1.500000e+00	-2.358633e-03	
270	2.850000e+00	1.500000e+00	-2.366754e-03	
271	2.900000e+00	1.500000e+00	-2.374856e-03	
272	2.950000e+00	1.500000e+00	-2.382939e-03	
273	3.000000e+00	1.500000e+00	-2.391007e-03	
274	3.050000e+00	1.500000e+00	-2.399060e-03	
275	3.100000e+00	1.500000e+00	-2.407099e-03	
276	3.150000e+00	1.500000e+00	-2.415127e-03	
277	3.200000e+00	1.500000e+00	-2.423144e-03	
278	3.250000e+00	1.500000e+00	-2.431151e-03	
279	3.300000e+00	1.500000e+00	-2.439149e-03	
280	3.350000e+00	1.500000e+00	-2.447140e-03	
281	3.400000e+00	1.500000e+00	-2.455124e-03	
282	3.450000e+00	1.500000e+00	-2.463102e-03	
283	3.500000e+00	1.500000e+00	-2.471075e-03	
284	0.000000e+00	2.000000e+00	0.000000e+00	
285	5.000000e-02	2.000000e+00	-3.236763e-04	
286	1.000000e-01	2.000000e+00	-6.208216e-04	

Index   sweep           v(1)            vds#branch      
--------------------------------------------------------------------------------
287	1.500000e-01	2.000000e+00	-8.931945e-04	
288	2.000000e-01	2.000000e+00	-1.142402e-03	
289	2.500000e-01	2.000000e+00	-1.369914e-03	
290	3.000000e-01	2.000000e+00	-1.577081e-03	
291	3.500000e-01	2.000000e+00	-1.765139e-03	
292	4.000000e-01	2.000000e+00	-1.935225e-03	
293	4.500000e-01	2.000000e+00	-2.088378e-03	
294	5.000000e-01	2.000000e+00	-2.225538e-03	
295	5.500000e-01	2.000000e+00	-2.347532e-03	
296	6.000000e-01	2.000000e+00	-2.455044e-03	
297	6.500000e-01	2.000000e+00	-2.548616e-03	
298	7.000000e-01	2.000000e+00	-2.628850e-03	
299	7.500000e-01	2.000000e+00	-2.696847e-03	
300	8.000000e-01	2.000000e+00	-2.754350e-03	
301	8.500000e-01	2.000000e+00	-2.803348e-03	
302	9.000000e-01	2.000000e+00	-2.845635e-03	
303	9.500000e-01	2.000000e+00	-2.882651e-03	
304	1.000000e+00	2.000000e+00	-2.915503e-03	
305	1.050000e+00	2.000000e+00	-2.945029e-03	
306	1.100000e+00	2.000000e+00	-2.971867e-03	
307	1.150000e+00	2.000000e+00	-2.996508e-03	
308	1.200000e+00	2.000000e+00	-3.019333e-03	
309	1.250000e+00	2.000000e+00	-3.040642e-03	
310	1.300000e+00	2.000000e+00	-3.060672e-03	
311	1.350000e+00	2.000000e+00	-3.079617e-03	
312	1.400000e+00	2.000000e+00	-3.097631e-03	
313	1.450000e+00	2.000000e+00	-3.114843e-03	
314	1.500000e+00	2.000000e+00	-3.131359e-03	
315	1.550000e+00	2.000000e+00	-3.147266e-03	
316	1.600000e+00	2.000000e+00	-3.162641e-03	
317	1.650000e+00	2.000000e+00	-3.177544e-03	
318	1.700000e+00	2.000000e+00	-3.192031e-03	
319	1.750000e+00	2.000000e+00	-3.206147e-03	
320	1.800000e+00	2.000000e+00	-3.219931e-03	
321	1.850000e+00	2.000000e+00	-3.233419e-03	
322	1.900000e+00	2.000000e+00	-3.246639e-03	
323	1.950000e+00	2.000000e+00	-3.259619e-03	
324	2.000000e+00	2.000000e+00	-3.272382e-03	
325	2.050000e+00	2.000000e+00	-3.284947e-03	
326	2.100000e+00	2.000000e+00	-3.297332e-03	
327	2.150000e+00	2.000000e+00	-3.309554e-03	
328	2.200000e+00	2.000000e+00	-3.321628e-03	
329	2.250000e+00	2.000000e+00	-3.333564e-03	
330	2.300000e+00	2.000000e+00	-3.345376e-03	
331	2.350000e+00	2.000000e+00	-3.357073e-03	
332	2.400000e+00	2.000000e+00	-3.368665e-03	
333	2.450000e+00	2.000000e+00	-3.380160e-03	
334	2.500000e+00	2.000000e+00	-3.391566e-03	
335	2.550000e+00	2.000000e+00	-3.402890e-03	
336	2.600000e+00	2.000000e+00	-3.414137e-03	
337	2.650000e+00	2.000000e+00	-3.425314e-03	
338	2.700000e+00	2.000000e+00	-3.436426e-03	
339	2.750000e+00	2.000000e+00	-3.447478e-03	
340	2.800000e+00	2.000000e+00	-3.458474e-03	
341	2.850000e+00	2.000000e+00	-3.469419e-03	
342	2.900000e+00	2.000000e+00	-3.480315e-03	
343	2.950000e+00	2.000000e+00	-3.491167e-03	
344	3.000000e+00	2.000000e+00	-3.501978e-03	

Index   sweep           v(1)            vds#branch      
--------------------------------------------------------------------------------
345	3.050000e+00	2.000000e+00	-3.512751e-03	
346	3.100000e+00	2.000000e+00	-3.523488e-03	
347	3.150000e+00	2.000000e+00	-3.534192e-03	
348	3.200000e+00	2.000000e+00	-3.544865e-03	
349	3.250000e+00	2.000000e+00	-3.555510e-03	
350	3.300000e+00	2.000000e+00	-3.566129e-03	
351	3.350000e+00	2.000000e+00	-3.576724e-03	
352	3.400000e+00	2.000000e+00	-3.587295e-03	
353	3.450000e+00	2.000000e+00	-3.597846e-03	
354	3.500000e+00	2.000000e+00	-3.608378e-03	
355	0.000000e+00	2.500000e+00	0.000000e+00	
356	5.000000e-02	2.500000e+00	-3.524858e-04	
357	1.000000e-01	2.500000e+00	-6.816829e-04	
358	1.500000e-01	2.500000e+00	-9.888828e-04	
359	2.000000e-01	2.500000e+00	-1.275283e-03	
360	2.500000e-01	2.500000e+00	-1.541996e-03	
361	3.000000e-01	2.500000e+00	-1.790055e-03	
362	3.500000e-01	2.500000e+00	-2.020424e-03	
363	4.000000e-01	2.500000e+00	-2.233999e-03	
364	4.500000e-01	2.500000e+00	-2.431616e-03	
365	5.000000e-01	2.500000e+00	-2.614054e-03	
366	5.500000e-01	2.500000e+00	-2.782035e-03	
367	6.000000e-01	2.500000e+00	-2.936226e-03	
368	6.500000e-01	2.500000e+00	-3.077231e-03	
369	7.000000e-01	2.500000e+00	-3.205575e-03	
370	7.500000e-01	2.500000e+00	-3.321678e-03	
371	8.000000e-01	2.500000e+00	-3.425836e-03	
372	8.500000e-01	2.500000e+00	-3.518300e-03	
373	9.000000e-01	2.500000e+00	-3.599516e-03	
374	9.500000e-01	2.500000e+00	-3.670391e-03	
375	1.000000e+00	2.500000e+00	-3.732247e-03	
376	1.050000e+00	2.500000e+00	-3.786542e-03	
377	1.100000e+00	2.500000e+00	-3.834624e-03	
378	1.150000e+00	2.500000e+00	-3.877630e-03	
379	1.200000e+00	2.500000e+00	-3.916478e-03	
380	1.250000e+00	2.500000e+00	-3.951901e-03	
381	1.300000e+00	2.500000e+00	-3.984482e-03	
382	1.350000e+00	2.500000e+00	-4.014682e-03	
383	1.400000e+00	2.500000e+00	-4.042874e-03	
384	1.450000e+00	2.500000e+00	-4.069358e-03	
385	1.500000e+00	2.500000e+00	-4.094380e-03	
386	1.550000e+00	2.500000e+00	-4.118139e-03	
387	1.600000e+00	2.500000e+00	-4.140804e-03	
388	1.650000e+00	2.500000e+00	-4.162513e-03	
389	1.700000e+00	2.500000e+00	-4.183384e-03	
390	1.750000e+00	2.500000e+00	-4.203514e-03	
391	1.800000e+00	2.500000e+00	-4.222990e-03	
392	1.850000e+00	2.500000e+00	-4.241882e-03	
393	1.900000e+00	2.500000e+00	-4.260253e-03	
394	1.950000e+00	2.500000e+00	-4.278158e-03	
395	2.000000e+00	2.500000e+00	-4.295642e-03	
396	2.050000e+00	2.500000e+00	-4.312747e-03	
397	2.100000e+00	2.500000e+00	-4.329509e-03	
398	2.150000e+00	2.500000e+00	-4.345960e-03	
399	2.200000e+00	2.500000e+00	-4.362127e-03	
400	2.250000e+00	2.500000e+00	-4.378036e-03	
401	2.300000e+00	2.500000e+00	-4.393709e-03	
402	2.350000e+00	2.500000e+00	-4.409165e-03	

Index   sweep           v(1)            vds#branch      
--------------------------------------------------------------------------------
403	2.400000e+00	2.500000e+00	-4.424423e-03	
404	2.450000e+00	2.500000e+00	-4.439498e-03	
405	2.500000e+00	2.500000e+00	-4.454405e-03	
406	2.550000e+00	2.500000e+00	-4.469157e-03	
407	2.600000e+00	2.500000e+00	-4.483766e-03	
408	2.650000e+00	2.500000e+00	-4.498242e-03	
409	2.700000e+00	2.500000e+00	-4.512595e-03	
410	2.750000e+00	2.500000e+00	-4.526834e-03	
411	2.800000e+00	2.500000e+00	-4.540968e-03	
412	2.850000e+00	2.500000e+00	-4.555003e-03	
413	2.900000e+00	2.500000e+00	-4.568946e-03	
414	2.950000e+00	2.500000e+00	-4.582804e-03	
415	3.000000e+00	2.500000e+00	-4.596583e-03	
416	3.050000e+00	2.500000e+00	-4.610288e-03	
417	3.100000e+00	2.500000e+00	-4.623923e-03	
418	3.150000e+00	2.500000e+00	-4.637494e-03	
419	3.200000e+00	2.500000e+00	-4.651005e-03	
420	3.250000e+00	2.500000e+00	-4.664459e-03	
421	3.300000e+00	2.500000e+00	-4.677861e-03	
422	3.350000e+00	2.500000e+00	-4.691213e-03	
423	3.400000e+00	2.500000e+00	-4.704518e-03	
424	3.450000e+00	2.500000e+00	-4.717781e-03	
425	3.500000e+00	2.500000e+00	-4.731003e-03	
426	0.000000e+00	3.000000e+00	0.000000e+00	
427	5.000000e-02	3.000000e+00	-3.715424e-04	
428	1.000000e-01	3.000000e+00	-7.225402e-04	
429	1.500000e-01	3.000000e+00	-1.053969e-03	
430	2.000000e-01	3.000000e+00	-1.366742e-03	
431	2.500000e-01	3.000000e+00	-1.661719e-03	
432	3.000000e-01	3.000000e+00	-1.939706e-03	
433	3.500000e-01	3.000000e+00	-2.201461e-03	
434	4.000000e-01	3.000000e+00	-2.447697e-03	
435	4.500000e-01	3.000000e+00	-2.679088e-03	
436	5.000000e-01	3.000000e+00	-2.896266e-03	
437	5.500000e-01	3.000000e+00	-3.099827e-03	
438	6.000000e-01	3.000000e+00	-3.290335e-03	
439	6.500000e-01	3.000000e+00	-3.468318e-03	
440	7.000000e-01	3.000000e+00	-3.634271e-03	
441	7.500000e-01	3.000000e+00	-3.788653e-03	
442	8.000000e-01	3.000000e+00	-3.931883e-03	
443	8.500000e-01	3.000000e+00	-4.064327e-03	
444	9.000000e-01	3.000000e+00	-4.186280e-03	
445	9.500000e-01	3.000000e+00	-4.297953e-03	
446	1.000000e+00	3.000000e+00	-4.399495e-03	
447	1.050000e+00	3.000000e+00	-4.491102e-03	
448	1.100000e+00	3.000000e+00	-4.573191e-03	
449	1.150000e+00	3.000000e+00	-4.646506e-03	
450	1.200000e+00	3.000000e+00	-4.712035e-03	
451	1.250000e+00	3.000000e+00	-4.770850e-03	
452	1.300000e+00	3.000000e+00	-4.823967e-03	
453	1.350000e+00	3.000000e+00	-4.872280e-03	
454	1.400000e+00	3.000000e+00	-4.916543e-03	
455	1.450000e+00	3.000000e+00	-4.957385e-03	
456	1.500000e+00	3.000000e+00	-4.995320e-03	
457	1.550000e+00	3.000000e+00	-5.030775e-03	
458	1.600000e+00	3.000000e+00	-5.064098e-03	
459	1.650000e+00	3.000000e+00	-5.095581e-03	
460	1.700000e+00	3.000000e+00	-5.125463e-03	

Index   sweep           v(1)            vds#branch      
--------------------------------------------------------------------------------
461	1.750000e+00	3.000000e+00	-5.153948e-03	
462	1.800000e+00	3.000000e+00	-5.181207e-03	
463	1.850000e+00	3.000000e+00	-5.207383e-03	
464	1.900000e+00	3.000000e+00	-5.232599e-03	
465	1.950000e+00	3.000000e+00	-5.256962e-03	
466	2.000000e+00	3.000000e+00	-5.280563e-03	
467	2.050000e+00	3.000000e+00	-5.303479e-03	
468	2.100000e+00	3.000000e+00	-5.325780e-03	
469	2.150000e+00	3.000000e+00	-5.347526e-03	
470	2.200000e+00	3.000000e+00	-5.368768e-03	
471	2.250000e+00	3.000000e+00	-5.389554e-03	
472	2.300000e+00	3.000000e+00	-5.409924e-03	
473	2.350000e+00	3.000000e+00	-5.429915e-03	
474	2.400000e+00	3.000000e+00	-5.449559e-03	
475	2.450000e+00	3.000000e+00	-5.468884e-03	
476	2.500000e+00	3.000000e+00	-5.487918e-03	
477	2.550000e+00	3.000000e+00	-5.506682e-03	
478	2.600000e+00	3.000000e+00	-5.525198e-03	
479	2.650000e+00	3.000000e+00	-5.543485e-03	
480	2.700000e+00	3.000000e+00	-5.561560e-03	
481	2.750000e+00	3.000000e+00	-5.579439e-03	
482	2.800000e+00	3.000000e+00	-5.597136e-03	
483	2.850000e+00	3.000000e+00	-5.614663e-03	
484	2.900000e+00	3.000000e+00	-5.632032e-03	
485	2.950000e+00	3.000000e+00	-5.649255e-03	
486	3.000000e+00	3.000000e+00	-5.666341e-03	
487	3.050000e+00	3.000000e+00	-5.683300e-03	
488	3.100000e+00	3.000000e+00	-5.700139e-03	
489	3.150000e+00	3.000000e+00	-5.716866e-03	
490	3.200000e+00	3.000000e+00	-5.733489e-03	
491	3.250000e+00	3.000000e+00	-5.750014e-03	
492	3.300000e+00	3.000000e+00	-5.766447e-03	
493	3.350000e+00	3.000000e+00	-5.782794e-03	
494	3.400000e+00	3.000000e+00	-5.799060e-03	
495	3.450000e+00	3.000000e+00	-5.815250e-03	
496	3.500000e+00	3.000000e+00	-5.831369e-03	
497	0.000000e+00	3.500000e+00	0.000000e+00	
498	5.000000e-02	3.500000e+00	-3.843688e-04	
499	1.000000e-01	3.500000e+00	-7.504913e-04	
500	1.500000e-01	3.500000e+00	-1.099122e-03	
501	2.000000e-01	3.500000e+00	-1.430974e-03	
502	2.500000e-01	3.500000e+00	-1.746723e-03	
503	3.000000e-01	3.500000e+00	-2.047007e-03	
504	3.500000e-01	3.500000e+00	-2.332433e-03	
505	4.000000e-01	3.500000e+00	-2.603575e-03	
506	4.500000e-01	3.500000e+00	-2.860979e-03	
507	5.000000e-01	3.500000e+00	-3.105162e-03	
508	5.500000e-01	3.500000e+00	-3.336616e-03	
509	6.000000e-01	3.500000e+00	-3.555808e-03	
510	6.500000e-01	3.500000e+00	-3.763183e-03	
511	7.000000e-01	3.500000e+00	-3.959162e-03	
512	7.500000e-01	3.500000e+00	-4.144147e-03	
513	8.000000e-01	3.500000e+00	-4.318516e-03	
514	8.500000e-01	3.500000e+00	-4.482628e-03	
515	9.000000e-01	3.500000e+00	-4.636818e-03	
516	9.500000e-01	3.500000e+00	-4.781392e-03	
517	1.000000e+00	3.500000e+00	-4.916626e-03	
518	1.050000e+00	3.500000e+00	-5.042748e-03	

Index   sweep           v(1)            vds#branch      
--------------------------------------------------------------------------------
519	1.100000e+00	3.500000e+00	-5.159937e-03	
520	1.150000e+00	3.500000e+00	-5.268322e-03	
521	1.200000e+00	3.500000e+00	-5.368031e-03	
522	1.250000e+00	3.500000e+00	-5.459278e-03	
523	1.300000e+00	3.500000e+00	-5.542452e-03	
524	1.350000e+00	3.500000e+00	-5.618141e-03	
525	1.400000e+00	3.500000e+00	-5.687072e-03	
526	1.450000e+00	3.500000e+00	-5.750027e-03	
527	1.500000e+00	3.500000e+00	-5.807770e-03	
528	1.550000e+00	3.500000e+00	-5.860998e-03	
529	1.600000e+00	3.500000e+00	-5.910330e-03	
530	1.650000e+00	3.500000e+00	-5.956293e-03	
531	1.700000e+00	3.500000e+00	-5.999342e-03	
532	1.750000e+00	3.500000e+00	-6.039857e-03	
533	1.800000e+00	3.500000e+00	-6.078163e-03	
534	1.850000e+00	3.500000e+00	-6.114533e-03	
535	1.900000e+00	3.500000e+00	-6.149200e-03	
536	1.950000e+00	3.500000e+00	-6.182362e-03	
537	2.000000e+00	3.500000e+00	-6.214190e-03	
538	2.050000e+00	3.500000e+00	-6.244828e-03	
539	2.100000e+00	3.500000e+00	-6.274403e-03	
540	2.150000e+00	3.500000e+00	-6.303024e-03	
541	2.200000e+00	3.500000e+00	-6.330787e-03	
542	2.250000e+00	3.500000e+00	-6.357775e-03	
543	2.300000e+00	3.500000e+00	-6.384060e-03	
544	2.350000e+00	3.500000e+00	-6.409708e-03	
545	2.400000e+00	3.500000e+00	-6.434775e-03	
546	2.450000e+00	3.500000e+00	-6.459311e-03	
547	2.500000e+00	3.500000e+00	-6.483362e-03	
548	2.550000e+00	3.500000e+00	-6.506968e-03	
549	2.600000e+00	3.500000e+00	-6.530165e-03	
550	2.650000e+00	3.500000e+00	-6.552985e-03	
551	2.700000e+00	3.500000e+00	-6.575457e-03	
552	2.750000e+00	3.500000e+00	-6.597608e-03	
553	2.800000e+00	3.500000e+00	-6.619462e-03	
554	2.850000e+00	3.500000e+00	-6.641039e-03	
555	2.900000e+00	3.500000e+00	-6.662360e-03	
556	2.950000e+00	3.500000e+00	-6.683443e-03	
557	3.000000e+00	3.500000e+00	-6.704304e-03	
558	3.050000e+00	3.500000e+00	-6.724958e-03	
559	3.100000e+00	3.500000e+00	-6.745419e-03	
560	3.150000e+00	3.500000e+00	-6.765699e-03	
561	3.200000e+00	3.500000e+00	-6.785810e-03	
562	3.250000e+00	3.500000e+00	-6.805763e-03	
563	3.300000e+00	3.500000e+00	-6.825567e-03	
564	3.350000e+00	3.500000e+00	-6.845231e-03	
565	3.400000e+00	3.500000e+00	-6.864765e-03	
566	3.450000e+00	3.500000e+00	-6.884176e-03	
567	3.500000e+00	3.500000e+00	-6.903471e-03	

CPU time since last call: 0.140 seconds.

Total CPU time: 0.140 seconds.

Current dynamic memory usage = 303104,
Dynamic memory limit = -18809400.

